1



                                 *********************************************

                                    NUMERICAL ELECTROMAGNETICS CODE (NEC-2D)

                                 *********************************************




                                     - - - - COMMENTS - - - -


                          dipole over 1/2 wave splasher feed                                         
                          dimensions from RSGB Microwave Vol3 p14.25                                 
                          leave out freq, do it in wavelengths                                       
                          pointed in pos Z direction                                                 
                          in free space                                                              
                                                                                                     




                                 - - - STRUCTURE SPECIFICATION - - -

                                     COORDINATES MUST BE INPUT IN
                                     METERS OR BE SCALED TO METERS
                                     BEFORE STRUCTURE INPUT IS ENDED


  WIRE                                                                               NO. OF    FIRST  LAST     TAG
  NO.        X1         Y1         Z1          X2         Y2         Z2      RADIUS   SEG.     SEG.   SEG.     NO.
     1    0.25000    0.00000   -0.30000     0.17680    0.17680   -0.30000    0.00100     10        1    10       1
     2    0.17680    0.17680   -0.30000     0.00000    0.25000   -0.30000    0.00100     10       11    20       2
     3    0.18750    0.00000   -0.30000     0.13260    0.13260   -0.30000    0.00100     10       21    30       3
     4    0.13260    0.13260   -0.30000     0.00000    0.18750   -0.30000    0.00100     10       31    40       4
     5    0.12500    0.00000   -0.30000     0.08840    0.08840   -0.30000    0.00100     10       41    50       5
     6    0.08840    0.08840   -0.30000     0.00000    0.12500   -0.30000    0.00100     10       51    60       6
     7    0.06250    0.00000   -0.30000     0.04420    0.04420   -0.30000    0.00100     10       61    70       7
     8    0.04420    0.04420   -0.30000     0.00000    0.06250   -0.30000    0.00100     10       71    80       8
     9    0.00000    0.00000   -0.30000     0.04420    0.04420   -0.30000    0.00100     10       81    90       9
    10    0.04420    0.04420   -0.30000     0.08840    0.08840   -0.30000    0.00100     10       91   100      10
    11    0.08840    0.08840   -0.30000     0.13260    0.13260   -0.30000    0.00100     10      101   110      11
    12    0.13260    0.13260   -0.30000     0.17680    0.17680   -0.30000    0.00100     10      111   120      12
      STRUCTURE REFLECTED ALONG THE AXES X Y  .  TAGS INCREMENTED BY   12
    13    0.00000   -0.22500    0.00000     0.00000    0.22500    0.00000    0.02700      9      481   489      51
      STRUCTURE SCALED BY FACTOR   1.00000

   TOTAL SEGMENTS USED=  489     NO. SEG. IN A SYMMETRIC CELL=  489     SYMMETRY FLAG=  0


         - MULTIPLE WIRE JUNCTIONS -
 JUNCTION    SEGMENTS  (- FOR END 1, + FOR END 2)
     1        10  -11  120
     2        30  -31  110 -111
     3        50  -51  100 -101
     4        70  -71   90  -91
     5       -81 -201 -321 -441
     6       130 -131  240
     7       150 -151  230 -231
     8       170 -171  220 -221
     9       190 -191  210 -211
    10       250 -251  360
    11       270 -271  350 -351
    12       290 -291  340 -341
    13       310 -311  330 -331
    14       370 -371  480
    15       390 -391  470 -471
    16       410 -411  460 -461
    17       430 -431  450 -451




                                 - - - - SEGMENTATION DATA - - - -

                                        COORDINATES IN METERS

                         I+ AND I- INDICATE THE SEGMENTS BEFORE AND AFTER I


  SEG.   COORDINATES OF SEG. CENTER     SEG.     ORIENTATION ANGLES    WIRE    CONNECTION DATA   TAG
  NO.       X         Y         Z       LENGTH     ALPHA     BETA      RADIUS    I-   I    I+    NO.
     1   0.24634   0.00884  -0.30000   0.01914    0.00000 112.49088   0.00100  -121    1    2      1
     2   0.23902   0.02652  -0.30000   0.01914    0.00000 112.49088   0.00100     1    2    3      1
     3   0.23170   0.04420  -0.30000   0.01914    0.00000 112.49088   0.00100     2    3    4      1
     4   0.22438   0.06188  -0.30000   0.01914    0.00000 112.49088   0.00100     3    4    5      1
     5   0.21706   0.07956  -0.30000   0.01914    0.00000 112.49088   0.00100     4    5    6      1
     6   0.20974   0.09724  -0.30000   0.01914    0.00000 112.49088   0.00100     5    6    7      1
     7   0.20242   0.11492  -0.30000   0.01914    0.00000 112.49088   0.00100     6    7    8      1
     8   0.19510   0.13260  -0.30000   0.01914    0.00000 112.49088   0.00100     7    8    9      1
     9   0.18778   0.15028  -0.30000   0.01914    0.00000 112.49088   0.00100     8    9   10      1
    10   0.18046   0.16796  -0.30000   0.01914    0.00000 112.49088   0.00100     9   10   11      1
    11   0.16796   0.18046  -0.30000   0.01914    0.00000 157.50912   0.00100   120   11   12      2
    12   0.15028   0.18778  -0.30000   0.01914    0.00000 157.50912   0.00100    11   12   13      2
    13   0.13260   0.19510  -0.30000   0.01914    0.00000 157.50912   0.00100    12   13   14      2
    14   0.11492   0.20242  -0.30000   0.01914    0.00000 157.50912   0.00100    13   14   15      2
    15   0.09724   0.20974  -0.30000   0.01914    0.00000 157.50912   0.00100    14   15   16      2
    16   0.07956   0.21706  -0.30000   0.01914    0.00000 157.50912   0.00100    15   16   17      2
    17   0.06188   0.22438  -0.30000   0.01914    0.00000 157.50912   0.00100    16   17   18      2
    18   0.04420   0.23170  -0.30000   0.01914    0.00000 157.50912   0.00100    17   18   19      2
    19   0.02652   0.23902  -0.30000   0.01914    0.00000 157.50912   0.00100    18   19   20      2
    20   0.00884   0.24634  -0.30000   0.01914    0.00000 157.50912   0.00100    19   20 -260      2
    21   0.18476   0.00663  -0.30000   0.01435    0.00000 112.49088   0.00100  -141   21   22      3
    22   0.17927   0.01989  -0.30000   0.01435    0.00000 112.49088   0.00100    21   22   23      3
    23   0.17378   0.03315  -0.30000   0.01435    0.00000 112.49088   0.00100    22   23   24      3
    24   0.16828   0.04641  -0.30000   0.01435    0.00000 112.49088   0.00100    23   24   25      3
    25   0.16280   0.05967  -0.30000   0.01435    0.00000 112.49088   0.00100    24   25   26      3
    26   0.15731   0.07293  -0.30000   0.01435    0.00000 112.49088   0.00100    25   26   27      3
    27   0.15182   0.08619  -0.30000   0.01435    0.00000 112.49088   0.00100    26   27   28      3
    28   0.14632   0.09945  -0.30000   0.01435    0.00000 112.49088   0.00100    27   28   29      3
    29   0.14083   0.11271  -0.30000   0.01435    0.00000 112.49088   0.00100    28   29   30      3
    30   0.13534   0.12597  -0.30000   0.01435    0.00000 112.49088   0.00100    29   30   31      3
    31   0.12597   0.13534  -0.30000   0.01435    0.00000 157.50912   0.00100   110   31   32      4
    32   0.11271   0.14083  -0.30000   0.01435    0.00000 157.50912   0.00100    31   32   33      4
    33   0.09945   0.14632  -0.30000   0.01435    0.00000 157.50912   0.00100    32   33   34      4
    34   0.08619   0.15182  -0.30000   0.01435    0.00000 157.50912   0.00100    33   34   35      4
    35   0.07293   0.15731  -0.30000   0.01435    0.00000 157.50912   0.00100    34   35   36      4
    36   0.05967   0.16280  -0.30000   0.01435    0.00000 157.50912   0.00100    35   36   37      4
    37   0.04641   0.16828  -0.30000   0.01435    0.00000 157.50912   0.00100    36   37   38      4
    38   0.03315   0.17378  -0.30000   0.01435    0.00000 157.50912   0.00100    37   38   39      4
    39   0.01989   0.17927  -0.30000   0.01435    0.00000 157.50912   0.00100    38   39   40      4
    40   0.00663   0.18476  -0.30000   0.01435    0.00000 157.50912   0.00100    39   40 -280      4
    41   0.12317   0.00442  -0.30000   0.00957    0.00000 112.49088   0.00100  -161   41   42      5
    42   0.11951   0.01326  -0.30000   0.00957    0.00000 112.49088   0.00100    41   42   43      5
    43   0.11585   0.02210  -0.30000   0.00957    0.00000 112.49088   0.00100    42   43   44      5
    44   0.11219   0.03094  -0.30000   0.00957    0.00000 112.49088   0.00100    43   44   45      5
    45   0.10853   0.03978  -0.30000   0.00957    0.00000 112.49088   0.00100    44   45   46      5
    46   0.10487   0.04862  -0.30000   0.00957    0.00000 112.49088   0.00100    45   46   47      5
    47   0.10121   0.05746  -0.30000   0.00957    0.00000 112.49088   0.00100    46   47   48      5
    48   0.09755   0.06630  -0.30000   0.00957    0.00000 112.49088   0.00100    47   48   49      5
    49   0.09389   0.07514  -0.30000   0.00957    0.00000 112.49088   0.00100    48   49   50      5
    50   0.09023   0.08398  -0.30000   0.00957    0.00000 112.49088   0.00100    49   50   51      5
    51   0.08398   0.09023  -0.30000   0.00957    0.00000 157.50912   0.00100   100   51   52      6
    52   0.07514   0.09389  -0.30000   0.00957    0.00000 157.50912   0.00100    51   52   53      6
    53   0.06630   0.09755  -0.30000   0.00957    0.00000 157.50912   0.00100    52   53   54      6
    54   0.05746   0.10121  -0.30000   0.00957    0.00000 157.50912   0.00100    53   54   55      6
    55   0.04862   0.10487  -0.30000   0.00957    0.00000 157.50912   0.00100    54   55   56      6
    56   0.03978   0.10853  -0.30000   0.00957    0.00000 157.50912   0.00100    55   56   57      6
    57   0.03094   0.11219  -0.30000   0.00957    0.00000 157.50912   0.00100    56   57   58      6
    58   0.02210   0.11585  -0.30000   0.00957    0.00000 157.50912   0.00100    57   58   59      6
    59   0.01326   0.11951  -0.30000   0.00957    0.00000 157.50912   0.00100    58   59   60      6
    60   0.00442   0.12317  -0.30000   0.00957    0.00000 157.50912   0.00100    59   60 -300      6
    61   0.06159   0.00221  -0.30000   0.00478    0.00000 112.49088   0.00100  -181   61   62      7
    62   0.05976   0.00663  -0.30000   0.00478    0.00000 112.49088   0.00100    61   62   63      7
    63   0.05793   0.01105  -0.30000   0.00478    0.00000 112.49088   0.00100    62   63   64      7
    64   0.05609   0.01547  -0.30000   0.00478    0.00000 112.49088   0.00100    63   64   65      7
    65   0.05427   0.01989  -0.30000   0.00478    0.00000 112.49088   0.00100    64   65   66      7
    66   0.05244   0.02431  -0.30000   0.00478    0.00000 112.49088   0.00100    65   66   67      7
    67   0.05061   0.02873  -0.30000   0.00478    0.00000 112.49088   0.00100    66   67   68      7
    68   0.04877   0.03315  -0.30000   0.00478    0.00000 112.49088   0.00100    67   68   69      7
    69   0.04695   0.03757  -0.30000   0.00478    0.00000 112.49088   0.00100    68   69   70      7
    70   0.04512   0.04199  -0.30000   0.00478    0.00000 112.49088   0.00100    69   70   71      7
    71   0.04199   0.04512  -0.30000   0.00478    0.00000 157.50912   0.00100    90   71   72      8
    72   0.03757   0.04695  -0.30000   0.00478    0.00000 157.50912   0.00100    71   72   73      8
    73   0.03315   0.04877  -0.30000   0.00478    0.00000 157.50912   0.00100    72   73   74      8
    74   0.02873   0.05061  -0.30000   0.00478    0.00000 157.50912   0.00100    73   74   75      8
    75   0.02431   0.05244  -0.30000   0.00478    0.00000 157.50912   0.00100    74   75   76      8
    76   0.01989   0.05427  -0.30000   0.00478    0.00000 157.50912   0.00100    75   76   77      8
    77   0.01547   0.05609  -0.30000   0.00478    0.00000 157.50912   0.00100    76   77   78      8
    78   0.01105   0.05793  -0.30000   0.00478    0.00000 157.50912   0.00100    77   78   79      8
    79   0.00663   0.05976  -0.30000   0.00478    0.00000 157.50912   0.00100    78   79   80      8
    80   0.00221   0.06159  -0.30000   0.00478    0.00000 157.50912   0.00100    79   80 -320      8
    81   0.00221   0.00221  -0.30000   0.00625    0.00000  45.00000   0.00100  -201   81   82      9
    82   0.00663   0.00663  -0.30000   0.00625    0.00000  45.00000   0.00100    81   82   83      9
    83   0.01105   0.01105  -0.30000   0.00625    0.00000  45.00000   0.00100    82   83   84      9
    84   0.01547   0.01547  -0.30000   0.00625    0.00000  45.00000   0.00100    83   84   85      9
    85   0.01989   0.01989  -0.30000   0.00625    0.00000  45.00000   0.00100    84   85   86      9
    86   0.02431   0.02431  -0.30000   0.00625    0.00000  45.00000   0.00100    85   86   87      9
    87   0.02873   0.02873  -0.30000   0.00625    0.00000  45.00000   0.00100    86   87   88      9
    88   0.03315   0.03315  -0.30000   0.00625    0.00000  45.00000   0.00100    87   88   89      9
    89   0.03757   0.03757  -0.30000   0.00625    0.00000  45.00000   0.00100    88   89   90      9
    90   0.04199   0.04199  -0.30000   0.00625    0.00000  45.00000   0.00100    89   90   91      9
    91   0.04641   0.04641  -0.30000   0.00625    0.00000  45.00000   0.00100    70   91   92     10
    92   0.05083   0.05083  -0.30000   0.00625    0.00000  45.00000   0.00100    91   92   93     10
    93   0.05525   0.05525  -0.30000   0.00625    0.00000  45.00000   0.00100    92   93   94     10
    94   0.05967   0.05967  -0.30000   0.00625    0.00000  45.00000   0.00100    93   94   95     10
    95   0.06409   0.06409  -0.30000   0.00625    0.00000  45.00000   0.00100    94   95   96     10
    96   0.06851   0.06851  -0.30000   0.00625    0.00000  45.00000   0.00100    95   96   97     10
    97   0.07293   0.07293  -0.30000   0.00625    0.00000  45.00000   0.00100    96   97   98     10
    98   0.07735   0.07735  -0.30000   0.00625    0.00000  45.00000   0.00100    97   98   99     10
    99   0.08177   0.08177  -0.30000   0.00625    0.00000  45.00000   0.00100    98   99  100     10
   100   0.08619   0.08619  -0.30000   0.00625    0.00000  45.00000   0.00100    99  100  101     10
   101   0.09061   0.09061  -0.30000   0.00625    0.00000  45.00000   0.00100    50  101  102     11
   102   0.09503   0.09503  -0.30000   0.00625    0.00000  45.00000   0.00100   101  102  103     11
   103   0.09945   0.09945  -0.30000   0.00625    0.00000  45.00000   0.00100   102  103  104     11
   104   0.10387   0.10387  -0.30000   0.00625    0.00000  45.00000   0.00100   103  104  105     11
   105   0.10829   0.10829  -0.30000   0.00625    0.00000  45.00000   0.00100   104  105  106     11
   106   0.11271   0.11271  -0.30000   0.00625    0.00000  45.00000   0.00100   105  106  107     11
   107   0.11713   0.11713  -0.30000   0.00625    0.00000  45.00000   0.00100   106  107  108     11
   108   0.12155   0.12155  -0.30000   0.00625    0.00000  45.00000   0.00100   107  108  109     11
   109   0.12597   0.12597  -0.30000   0.00625    0.00000  45.00000   0.00100   108  109  110     11
   110   0.13039   0.13039  -0.30000   0.00625    0.00000  45.00000   0.00100   109  110  111     11
   111   0.13481   0.13481  -0.30000   0.00625    0.00000  45.00000   0.00100    30  111  112     12
   112   0.13923   0.13923  -0.30000   0.00625    0.00000  45.00000   0.00100   111  112  113     12
   113   0.14365   0.14365  -0.30000   0.00625    0.00000  45.00000   0.00100   112  113  114     12
   114   0.14807   0.14807  -0.30000   0.00625    0.00000  45.00000   0.00100   113  114  115     12
   115   0.15249   0.15249  -0.30000   0.00625    0.00000  45.00000   0.00100   114  115  116     12
   116   0.15691   0.15691  -0.30000   0.00625    0.00000  45.00000   0.00100   115  116  117     12
   117   0.16133   0.16133  -0.30000   0.00625    0.00000  45.00000   0.00100   116  117  118     12
   118   0.16575   0.16575  -0.30000   0.00625    0.00000  45.00000   0.00100   117  118  119     12
   119   0.17017   0.17017  -0.30000   0.00625    0.00000  45.00000   0.00100   118  119  120     12
   120   0.17459   0.17459  -0.30000   0.00625    0.00000  45.00000   0.00100   119  120  -10     12
   121   0.24634  -0.00884  -0.30000   0.01914    0.00000-112.49088   0.00100    -1  121  122     13
   122   0.23902  -0.02652  -0.30000   0.01914    0.00000-112.49088   0.00100   121  122  123     13
   123   0.23170  -0.04420  -0.30000   0.01914    0.00000-112.49088   0.00100   122  123  124     13
   124   0.22438  -0.06188  -0.30000   0.01914    0.00000-112.49088   0.00100   123  124  125     13
   125   0.21706  -0.07956  -0.30000   0.01914    0.00000-112.49088   0.00100   124  125  126     13
   126   0.20974  -0.09724  -0.30000   0.01914    0.00000-112.49088   0.00100   125  126  127     13
   127   0.20242  -0.11492  -0.30000   0.01914    0.00000-112.49088   0.00100   126  127  128     13
   128   0.19510  -0.13260  -0.30000   0.01914    0.00000-112.49088   0.00100   127  128  129     13
   129   0.18778  -0.15028  -0.30000   0.01914    0.00000-112.49088   0.00100   128  129  130     13
   130   0.18046  -0.16796  -0.30000   0.01914    0.00000-112.49088   0.00100   129  130  131     13
   131   0.16796  -0.18046  -0.30000   0.01914    0.00000-157.50912   0.00100   240  131  132     14
   132   0.15028  -0.18778  -0.30000   0.01914    0.00000-157.50912   0.00100   131  132  133     14
   133   0.13260  -0.19510  -0.30000   0.01914    0.00000-157.50912   0.00100   132  133  134     14
   134   0.11492  -0.20242  -0.30000   0.01914    0.00000-157.50912   0.00100   133  134  135     14
   135   0.09724  -0.20974  -0.30000   0.01914    0.00000-157.50912   0.00100   134  135  136     14
   136   0.07956  -0.21706  -0.30000   0.01914    0.00000-157.50912   0.00100   135  136  137     14
   137   0.06188  -0.22438  -0.30000   0.01914    0.00000-157.50912   0.00100   136  137  138     14
   138   0.04420  -0.23170  -0.30000   0.01914    0.00000-157.50912   0.00100   137  138  139     14
   139   0.02652  -0.23902  -0.30000   0.01914    0.00000-157.50912   0.00100   138  139  140     14
   140   0.00884  -0.24634  -0.30000   0.01914    0.00000-157.50912   0.00100   139  140 -380     14
   141   0.18476  -0.00663  -0.30000   0.01435    0.00000-112.49088   0.00100   -21  141  142     15
   142   0.17927  -0.01989  -0.30000   0.01435    0.00000-112.49088   0.00100   141  142  143     15
   143   0.17378  -0.03315  -0.30000   0.01435    0.00000-112.49088   0.00100   142  143  144     15
   144   0.16828  -0.04641  -0.30000   0.01435    0.00000-112.49088   0.00100   143  144  145     15
   145   0.16280  -0.05967  -0.30000   0.01435    0.00000-112.49088   0.00100   144  145  146     15
   146   0.15731  -0.07293  -0.30000   0.01435    0.00000-112.49088   0.00100   145  146  147     15
   147   0.15182  -0.08619  -0.30000   0.01435    0.00000-112.49088   0.00100   146  147  148     15
   148   0.14632  -0.09945  -0.30000   0.01435    0.00000-112.49088   0.00100   147  148  149     15
   149   0.14083  -0.11271  -0.30000   0.01435    0.00000-112.49088   0.00100   148  149  150     15
   150   0.13534  -0.12597  -0.30000   0.01435    0.00000-112.49088   0.00100   149  150  151     15
   151   0.12597  -0.13534  -0.30000   0.01435    0.00000-157.50912   0.00100   230  151  152     16
   152   0.11271  -0.14083  -0.30000   0.01435    0.00000-157.50912   0.00100   151  152  153     16
   153   0.09945  -0.14632  -0.30000   0.01435    0.00000-157.50912   0.00100   152  153  154     16
   154   0.08619  -0.15182  -0.30000   0.01435    0.00000-157.50912   0.00100   153  154  155     16
   155   0.07293  -0.15731  -0.30000   0.01435    0.00000-157.50912   0.00100   154  155  156     16
   156   0.05967  -0.16280  -0.30000   0.01435    0.00000-157.50912   0.00100   155  156  157     16
   157   0.04641  -0.16828  -0.30000   0.01435    0.00000-157.50912   0.00100   156  157  158     16
   158   0.03315  -0.17378  -0.30000   0.01435    0.00000-157.50912   0.00100   157  158  159     16
   159   0.01989  -0.17927  -0.30000   0.01435    0.00000-157.50912   0.00100   158  159  160     16
   160   0.00663  -0.18476  -0.30000   0.01435    0.00000-157.50912   0.00100   159  160 -400     16
   161   0.12317  -0.00442  -0.30000   0.00957    0.00000-112.49088   0.00100   -41  161  162     17
   162   0.11951  -0.01326  -0.30000   0.00957    0.00000-112.49088   0.00100   161  162  163     17
   163   0.11585  -0.02210  -0.30000   0.00957    0.00000-112.49088   0.00100   162  163  164     17
   164   0.11219  -0.03094  -0.30000   0.00957    0.00000-112.49088   0.00100   163  164  165     17
   165   0.10853  -0.03978  -0.30000   0.00957    0.00000-112.49088   0.00100   164  165  166     17
   166   0.10487  -0.04862  -0.30000   0.00957    0.00000-112.49088   0.00100   165  166  167     17
   167   0.10121  -0.05746  -0.30000   0.00957    0.00000-112.49088   0.00100   166  167  168     17
   168   0.09755  -0.06630  -0.30000   0.00957    0.00000-112.49088   0.00100   167  168  169     17
   169   0.09389  -0.07514  -0.30000   0.00957    0.00000-112.49088   0.00100   168  169  170     17
   170   0.09023  -0.08398  -0.30000   0.00957    0.00000-112.49088   0.00100   169  170  171     17
   171   0.08398  -0.09023  -0.30000   0.00957    0.00000-157.50912   0.00100   220  171  172     18
   172   0.07514  -0.09389  -0.30000   0.00957    0.00000-157.50912   0.00100   171  172  173     18
   173   0.06630  -0.09755  -0.30000   0.00957    0.00000-157.50912   0.00100   172  173  174     18
   174   0.05746  -0.10121  -0.30000   0.00957    0.00000-157.50912   0.00100   173  174  175     18
   175   0.04862  -0.10487  -0.30000   0.00957    0.00000-157.50912   0.00100   174  175  176     18
   176   0.03978  -0.10853  -0.30000   0.00957    0.00000-157.50912   0.00100   175  176  177     18
   177   0.03094  -0.11219  -0.30000   0.00957    0.00000-157.50912   0.00100   176  177  178     18
   178   0.02210  -0.11585  -0.30000   0.00957    0.00000-157.50912   0.00100   177  178  179     18
   179   0.01326  -0.11951  -0.30000   0.00957    0.00000-157.50912   0.00100   178  179  180     18
   180   0.00442  -0.12317  -0.30000   0.00957    0.00000-157.50912   0.00100   179  180 -420     18
   181   0.06159  -0.00221  -0.30000   0.00478    0.00000-112.49088   0.00100   -61  181  182     19
   182   0.05976  -0.00663  -0.30000   0.00478    0.00000-112.49088   0.00100   181  182  183     19
   183   0.05793  -0.01105  -0.30000   0.00478    0.00000-112.49088   0.00100   182  183  184     19
   184   0.05609  -0.01547  -0.30000   0.00478    0.00000-112.49088   0.00100   183  184  185     19
   185   0.05427  -0.01989  -0.30000   0.00478    0.00000-112.49088   0.00100   184  185  186     19
   186   0.05244  -0.02431  -0.30000   0.00478    0.00000-112.49088   0.00100   185  186  187     19
   187   0.05061  -0.02873  -0.30000   0.00478    0.00000-112.49088   0.00100   186  187  188     19
   188   0.04877  -0.03315  -0.30000   0.00478    0.00000-112.49088   0.00100   187  188  189     19
   189   0.04695  -0.03757  -0.30000   0.00478    0.00000-112.49088   0.00100   188  189  190     19
   190   0.04512  -0.04199  -0.30000   0.00478    0.00000-112.49088   0.00100   189  190  191     19
   191   0.04199  -0.04512  -0.30000   0.00478    0.00000-157.50912   0.00100   210  191  192     20
   192   0.03757  -0.04695  -0.30000   0.00478    0.00000-157.50912   0.00100   191  192  193     20
   193   0.03315  -0.04877  -0.30000   0.00478    0.00000-157.50912   0.00100   192  193  194     20
   194   0.02873  -0.05061  -0.30000   0.00478    0.00000-157.50912   0.00100   193  194  195     20
   195   0.02431  -0.05244  -0.30000   0.00478    0.00000-157.50912   0.00100   194  195  196     20
   196   0.01989  -0.05427  -0.30000   0.00478    0.00000-157.50912   0.00100   195  196  197     20
   197   0.01547  -0.05609  -0.30000   0.00478    0.00000-157.50912   0.00100   196  197  198     20
   198   0.01105  -0.05793  -0.30000   0.00478    0.00000-157.50912   0.00100   197  198  199     20
   199   0.00663  -0.05976  -0.30000   0.00478    0.00000-157.50912   0.00100   198  199  200     20
   200   0.00221  -0.06159  -0.30000   0.00478    0.00000-157.50912   0.00100   199  200 -440     20
   201   0.00221  -0.00221  -0.30000   0.00625    0.00000 -45.00000   0.00100  -321  201  202     21
   202   0.00663  -0.00663  -0.30000   0.00625    0.00000 -45.00000   0.00100   201  202  203     21
   203   0.01105  -0.01105  -0.30000   0.00625    0.00000 -45.00000   0.00100   202  203  204     21
   204   0.01547  -0.01547  -0.30000   0.00625    0.00000 -45.00000   0.00100   203  204  205     21
   205   0.01989  -0.01989  -0.30000   0.00625    0.00000 -45.00000   0.00100   204  205  206     21
   206   0.02431  -0.02431  -0.30000   0.00625    0.00000 -45.00000   0.00100   205  206  207     21
   207   0.02873  -0.02873  -0.30000   0.00625    0.00000 -45.00000   0.00100   206  207  208     21
   208   0.03315  -0.03315  -0.30000   0.00625    0.00000 -45.00000   0.00100   207  208  209     21
   209   0.03757  -0.03757  -0.30000   0.00625    0.00000 -45.00000   0.00100   208  209  210     21
   210   0.04199  -0.04199  -0.30000   0.00625    0.00000 -45.00000   0.00100   209  210  211     21
   211   0.04641  -0.04641  -0.30000   0.00625    0.00000 -45.00000   0.00100   190  211  212     22
   212   0.05083  -0.05083  -0.30000   0.00625    0.00000 -45.00000   0.00100   211  212  213     22
   213   0.05525  -0.05525  -0.30000   0.00625    0.00000 -45.00000   0.00100   212  213  214     22
   214   0.05967  -0.05967  -0.30000   0.00625    0.00000 -45.00000   0.00100   213  214  215     22
   215   0.06409  -0.06409  -0.30000   0.00625    0.00000 -45.00000   0.00100   214  215  216     22
   216   0.06851  -0.06851  -0.30000   0.00625    0.00000 -45.00000   0.00100   215  216  217     22
   217   0.07293  -0.07293  -0.30000   0.00625    0.00000 -45.00000   0.00100   216  217  218     22
   218   0.07735  -0.07735  -0.30000   0.00625    0.00000 -45.00000   0.00100   217  218  219     22
   219   0.08177  -0.08177  -0.30000   0.00625    0.00000 -45.00000   0.00100   218  219  220     22
   220   0.08619  -0.08619  -0.30000   0.00625    0.00000 -45.00000   0.00100   219  220  221     22
   221   0.09061  -0.09061  -0.30000   0.00625    0.00000 -45.00000   0.00100   170  221  222     23
   222   0.09503  -0.09503  -0.30000   0.00625    0.00000 -45.00000   0.00100   221  222  223     23
   223   0.09945  -0.09945  -0.30000   0.00625    0.00000 -45.00000   0.00100   222  223  224     23
   224   0.10387  -0.10387  -0.30000   0.00625    0.00000 -45.00000   0.00100   223  224  225     23
   225   0.10829  -0.10829  -0.30000   0.00625    0.00000 -45.00000   0.00100   224  225  226     23
   226   0.11271  -0.11271  -0.30000   0.00625    0.00000 -45.00000   0.00100   225  226  227     23
   227   0.11713  -0.11713  -0.30000   0.00625    0.00000 -45.00000   0.00100   226  227  228     23
   228   0.12155  -0.12155  -0.30000   0.00625    0.00000 -45.00000   0.00100   227  228  229     23
   229   0.12597  -0.12597  -0.30000   0.00625    0.00000 -45.00000   0.00100   228  229  230     23
   230   0.13039  -0.13039  -0.30000   0.00625    0.00000 -45.00000   0.00100   229  230  231     23
   231   0.13481  -0.13481  -0.30000   0.00625    0.00000 -45.00000   0.00100   150  231  232     24
   232   0.13923  -0.13923  -0.30000   0.00625    0.00000 -45.00000   0.00100   231  232  233     24
   233   0.14365  -0.14365  -0.30000   0.00625    0.00000 -45.00000   0.00100   232  233  234     24
   234   0.14807  -0.14807  -0.30000   0.00625    0.00000 -45.00000   0.00100   233  234  235     24
   235   0.15249  -0.15249  -0.30000   0.00625    0.00000 -45.00000   0.00100   234  235  236     24
   236   0.15691  -0.15691  -0.30000   0.00625    0.00000 -45.00000   0.00100   235  236  237     24
   237   0.16133  -0.16133  -0.30000   0.00625    0.00000 -45.00000   0.00100   236  237  238     24
   238   0.16575  -0.16575  -0.30000   0.00625    0.00000 -45.00000   0.00100   237  238  239     24
   239   0.17017  -0.17017  -0.30000   0.00625    0.00000 -45.00000   0.00100   238  239  240     24
   240   0.17459  -0.17459  -0.30000   0.00625    0.00000 -45.00000   0.00100   239  240 -130     24
   241  -0.24634   0.00884  -0.30000   0.01914    0.00000  67.50912   0.00100  -361  241  242     25
   242  -0.23902   0.02652  -0.30000   0.01914    0.00000  67.50912   0.00100   241  242  243     25
   243  -0.23170   0.04420  -0.30000   0.01914    0.00000  67.50912   0.00100   242  243  244     25
   244  -0.22438   0.06188  -0.30000   0.01914    0.00000  67.50912   0.00100   243  244  245     25
   245  -0.21706   0.07956  -0.30000   0.01914    0.00000  67.50912   0.00100   244  245  246     25
   246  -0.20974   0.09724  -0.30000   0.01914    0.00000  67.50912   0.00100   245  246  247     25
   247  -0.20242   0.11492  -0.30000   0.01914    0.00000  67.50912   0.00100   246  247  248     25
   248  -0.19510   0.13260  -0.30000   0.01914    0.00000  67.50912   0.00100   247  248  249     25
   249  -0.18778   0.15028  -0.30000   0.01914    0.00000  67.50912   0.00100   248  249  250     25
   250  -0.18046   0.16796  -0.30000   0.01914    0.00000  67.50912   0.00100   249  250  251     25
   251  -0.16796   0.18046  -0.30000   0.01914    0.00000  22.49088   0.00100   360  251  252     26
   252  -0.15028   0.18778  -0.30000   0.01914    0.00000  22.49088   0.00100   251  252  253     26
   253  -0.13260   0.19510  -0.30000   0.01914    0.00000  22.49088   0.00100   252  253  254     26
   254  -0.11492   0.20242  -0.30000   0.01914    0.00000  22.49088   0.00100   253  254  255     26
   255  -0.09724   0.20974  -0.30000   0.01914    0.00000  22.49088   0.00100   254  255  256     26
   256  -0.07956   0.21706  -0.30000   0.01914    0.00000  22.49088   0.00100   255  256  257     26
   257  -0.06188   0.22438  -0.30000   0.01914    0.00000  22.49088   0.00100   256  257  258     26
   258  -0.04420   0.23170  -0.30000   0.01914    0.00000  22.49088   0.00100   257  258  259     26
   259  -0.02652   0.23902  -0.30000   0.01914    0.00000  22.49088   0.00100   258  259  260     26
   260  -0.00884   0.24634  -0.30000   0.01914    0.00000  22.49088   0.00100   259  260  -20     26
   261  -0.18476   0.00663  -0.30000   0.01435    0.00000  67.50912   0.00100  -381  261  262     27
   262  -0.17927   0.01989  -0.30000   0.01435    0.00000  67.50912   0.00100   261  262  263     27
   263  -0.17378   0.03315  -0.30000   0.01435    0.00000  67.50912   0.00100   262  263  264     27
   264  -0.16828   0.04641  -0.30000   0.01435    0.00000  67.50912   0.00100   263  264  265     27
   265  -0.16280   0.05967  -0.30000   0.01435    0.00000  67.50912   0.00100   264  265  266     27
   266  -0.15731   0.07293  -0.30000   0.01435    0.00000  67.50912   0.00100   265  266  267     27
   267  -0.15182   0.08619  -0.30000   0.01435    0.00000  67.50912   0.00100   266  267  268     27
   268  -0.14632   0.09945  -0.30000   0.01435    0.00000  67.50912   0.00100   267  268  269     27
   269  -0.14083   0.11271  -0.30000   0.01435    0.00000  67.50912   0.00100   268  269  270     27
   270  -0.13534   0.12597  -0.30000   0.01435    0.00000  67.50912   0.00100   269  270  271     27
   271  -0.12597   0.13534  -0.30000   0.01435    0.00000  22.49088   0.00100   350  271  272     28
   272  -0.11271   0.14083  -0.30000   0.01435    0.00000  22.49088   0.00100   271  272  273     28
   273  -0.09945   0.14632  -0.30000   0.01435    0.00000  22.49088   0.00100   272  273  274     28
   274  -0.08619   0.15182  -0.30000   0.01435    0.00000  22.49088   0.00100   273  274  275     28
   275  -0.07293   0.15731  -0.30000   0.01435    0.00000  22.49088   0.00100   274  275  276     28
   276  -0.05967   0.16280  -0.30000   0.01435    0.00000  22.49088   0.00100   275  276  277     28
   277  -0.04641   0.16828  -0.30000   0.01435    0.00000  22.49088   0.00100   276  277  278     28
   278  -0.03315   0.17378  -0.30000   0.01435    0.00000  22.49088   0.00100   277  278  279     28
   279  -0.01989   0.17927  -0.30000   0.01435    0.00000  22.49088   0.00100   278  279  280     28
   280  -0.00663   0.18476  -0.30000   0.01435    0.00000  22.49088   0.00100   279  280  -40     28
   281  -0.12317   0.00442  -0.30000   0.00957    0.00000  67.50912   0.00100  -401  281  282     29
   282  -0.11951   0.01326  -0.30000   0.00957    0.00000  67.50912   0.00100   281  282  283     29
   283  -0.11585   0.02210  -0.30000   0.00957    0.00000  67.50912   0.00100   282  283  284     29
   284  -0.11219   0.03094  -0.30000   0.00957    0.00000  67.50912   0.00100   283  284  285     29
   285  -0.10853   0.03978  -0.30000   0.00957    0.00000  67.50912   0.00100   284  285  286     29
   286  -0.10487   0.04862  -0.30000   0.00957    0.00000  67.50912   0.00100   285  286  287     29
   287  -0.10121   0.05746  -0.30000   0.00957    0.00000  67.50912   0.00100   286  287  288     29
   288  -0.09755   0.06630  -0.30000   0.00957    0.00000  67.50912   0.00100   287  288  289     29
   289  -0.09389   0.07514  -0.30000   0.00957    0.00000  67.50912   0.00100   288  289  290     29
   290  -0.09023   0.08398  -0.30000   0.00957    0.00000  67.50912   0.00100   289  290  291     29
   291  -0.08398   0.09023  -0.30000   0.00957    0.00000  22.49088   0.00100   340  291  292     30
   292  -0.07514   0.09389  -0.30000   0.00957    0.00000  22.49088   0.00100   291  292  293     30
   293  -0.06630   0.09755  -0.30000   0.00957    0.00000  22.49088   0.00100   292  293  294     30
   294  -0.05746   0.10121  -0.30000   0.00957    0.00000  22.49088   0.00100   293  294  295     30
   295  -0.04862   0.10487  -0.30000   0.00957    0.00000  22.49088   0.00100   294  295  296     30
   296  -0.03978   0.10853  -0.30000   0.00957    0.00000  22.49088   0.00100   295  296  297     30
   297  -0.03094   0.11219  -0.30000   0.00957    0.00000  22.49088   0.00100   296  297  298     30
   298  -0.02210   0.11585  -0.30000   0.00957    0.00000  22.49088   0.00100   297  298  299     30
   299  -0.01326   0.11951  -0.30000   0.00957    0.00000  22.49088   0.00100   298  299  300     30
   300  -0.00442   0.12317  -0.30000   0.00957    0.00000  22.49088   0.00100   299  300  -60     30
   301  -0.06159   0.00221  -0.30000   0.00478    0.00000  67.50912   0.00100  -421  301  302     31
   302  -0.05976   0.00663  -0.30000   0.00478    0.00000  67.50912   0.00100   301  302  303     31
   303  -0.05793   0.01105  -0.30000   0.00478    0.00000  67.50912   0.00100   302  303  304     31
   304  -0.05609   0.01547  -0.30000   0.00478    0.00000  67.50912   0.00100   303  304  305     31
   305  -0.05427   0.01989  -0.30000   0.00478    0.00000  67.50912   0.00100   304  305  306     31
   306  -0.05244   0.02431  -0.30000   0.00478    0.00000  67.50912   0.00100   305  306  307     31
   307  -0.05061   0.02873  -0.30000   0.00478    0.00000  67.50912   0.00100   306  307  308     31
   308  -0.04877   0.03315  -0.30000   0.00478    0.00000  67.50912   0.00100   307  308  309     31
   309  -0.04695   0.03757  -0.30000   0.00478    0.00000  67.50912   0.00100   308  309  310     31
   310  -0.04512   0.04199  -0.30000   0.00478    0.00000  67.50912   0.00100   309  310  311     31
   311  -0.04199   0.04512  -0.30000   0.00478    0.00000  22.49088   0.00100   330  311  312     32
   312  -0.03757   0.04695  -0.30000   0.00478    0.00000  22.49088   0.00100   311  312  313     32
   313  -0.03315   0.04877  -0.30000   0.00478    0.00000  22.49088   0.00100   312  313  314     32
   314  -0.02873   0.05061  -0.30000   0.00478    0.00000  22.49088   0.00100   313  314  315     32
   315  -0.02431   0.05244  -0.30000   0.00478    0.00000  22.49088   0.00100   314  315  316     32
   316  -0.01989   0.05427  -0.30000   0.00478    0.00000  22.49088   0.00100   315  316  317     32
   317  -0.01547   0.05609  -0.30000   0.00478    0.00000  22.49088   0.00100   316  317  318     32
   318  -0.01105   0.05793  -0.30000   0.00478    0.00000  22.49088   0.00100   317  318  319     32
   319  -0.00663   0.05976  -0.30000   0.00478    0.00000  22.49088   0.00100   318  319  320     32
   320  -0.00221   0.06159  -0.30000   0.00478    0.00000  22.49088   0.00100   319  320  -80     32
   321  -0.00221   0.00221  -0.30000   0.00625    0.00000 135.00000   0.00100  -441  321  322     33
   322  -0.00663   0.00663  -0.30000   0.00625    0.00000 135.00000   0.00100   321  322  323     33
   323  -0.01105   0.01105  -0.30000   0.00625    0.00000 135.00000   0.00100   322  323  324     33
   324  -0.01547   0.01547  -0.30000   0.00625    0.00000 135.00000   0.00100   323  324  325     33
   325  -0.01989   0.01989  -0.30000   0.00625    0.00000 135.00000   0.00100   324  325  326     33
   326  -0.02431   0.02431  -0.30000   0.00625    0.00000 135.00000   0.00100   325  326  327     33
   327  -0.02873   0.02873  -0.30000   0.00625    0.00000 135.00000   0.00100   326  327  328     33
   328  -0.03315   0.03315  -0.30000   0.00625    0.00000 135.00000   0.00100   327  328  329     33
   329  -0.03757   0.03757  -0.30000   0.00625    0.00000 135.00000   0.00100   328  329  330     33
   330  -0.04199   0.04199  -0.30000   0.00625    0.00000 135.00000   0.00100   329  330  331     33
   331  -0.04641   0.04641  -0.30000   0.00625    0.00000 135.00000   0.00100   310  331  332     34
   332  -0.05083   0.05083  -0.30000   0.00625    0.00000 135.00000   0.00100   331  332  333     34
   333  -0.05525   0.05525  -0.30000   0.00625    0.00000 135.00000   0.00100   332  333  334     34
   334  -0.05967   0.05967  -0.30000   0.00625    0.00000 135.00000   0.00100   333  334  335     34
   335  -0.06409   0.06409  -0.30000   0.00625    0.00000 135.00000   0.00100   334  335  336     34
   336  -0.06851   0.06851  -0.30000   0.00625    0.00000 135.00000   0.00100   335  336  337     34
   337  -0.07293   0.07293  -0.30000   0.00625    0.00000 135.00000   0.00100   336  337  338     34
   338  -0.07735   0.07735  -0.30000   0.00625    0.00000 135.00000   0.00100   337  338  339     34
   339  -0.08177   0.08177  -0.30000   0.00625    0.00000 135.00000   0.00100   338  339  340     34
   340  -0.08619   0.08619  -0.30000   0.00625    0.00000 135.00000   0.00100   339  340  341     34
   341  -0.09061   0.09061  -0.30000   0.00625    0.00000 135.00000   0.00100   290  341  342     35
   342  -0.09503   0.09503  -0.30000   0.00625    0.00000 135.00000   0.00100   341  342  343     35
   343  -0.09945   0.09945  -0.30000   0.00625    0.00000 135.00000   0.00100   342  343  344     35
   344  -0.10387   0.10387  -0.30000   0.00625    0.00000 135.00000   0.00100   343  344  345     35
   345  -0.10829   0.10829  -0.30000   0.00625    0.00000 135.00000   0.00100   344  345  346     35
   346  -0.11271   0.11271  -0.30000   0.00625    0.00000 135.00000   0.00100   345  346  347     35
   347  -0.11713   0.11713  -0.30000   0.00625    0.00000 135.00000   0.00100   346  347  348     35
   348  -0.12155   0.12155  -0.30000   0.00625    0.00000 135.00000   0.00100   347  348  349     35
   349  -0.12597   0.12597  -0.30000   0.00625    0.00000 135.00000   0.00100   348  349  350     35
   350  -0.13039   0.13039  -0.30000   0.00625    0.00000 135.00000   0.00100   349  350  351     35
   351  -0.13481   0.13481  -0.30000   0.00625    0.00000 135.00000   0.00100   270  351  352     36
   352  -0.13923   0.13923  -0.30000   0.00625    0.00000 135.00000   0.00100   351  352  353     36
   353  -0.14365   0.14365  -0.30000   0.00625    0.00000 135.00000   0.00100   352  353  354     36
   354  -0.14807   0.14807  -0.30000   0.00625    0.00000 135.00000   0.00100   353  354  355     36
   355  -0.15249   0.15249  -0.30000   0.00625    0.00000 135.00000   0.00100   354  355  356     36
   356  -0.15691   0.15691  -0.30000   0.00625    0.00000 135.00000   0.00100   355  356  357     36
   357  -0.16133   0.16133  -0.30000   0.00625    0.00000 135.00000   0.00100   356  357  358     36
   358  -0.16575   0.16575  -0.30000   0.00625    0.00000 135.00000   0.00100   357  358  359     36
   359  -0.17017   0.17017  -0.30000   0.00625    0.00000 135.00000   0.00100   358  359  360     36
   360  -0.17459   0.17459  -0.30000   0.00625    0.00000 135.00000   0.00100   359  360 -250     36
   361  -0.24634  -0.00884  -0.30000   0.01914    0.00000 -67.50912   0.00100  -241  361  362     37
   362  -0.23902  -0.02652  -0.30000   0.01914    0.00000 -67.50912   0.00100   361  362  363     37
   363  -0.23170  -0.04420  -0.30000   0.01914    0.00000 -67.50912   0.00100   362  363  364     37
   364  -0.22438  -0.06188  -0.30000   0.01914    0.00000 -67.50912   0.00100   363  364  365     37
   365  -0.21706  -0.07956  -0.30000   0.01914    0.00000 -67.50912   0.00100   364  365  366     37
   366  -0.20974  -0.09724  -0.30000   0.01914    0.00000 -67.50912   0.00100   365  366  367     37
   367  -0.20242  -0.11492  -0.30000   0.01914    0.00000 -67.50912   0.00100   366  367  368     37
   368  -0.19510  -0.13260  -0.30000   0.01914    0.00000 -67.50912   0.00100   367  368  369     37
   369  -0.18778  -0.15028  -0.30000   0.01914    0.00000 -67.50912   0.00100   368  369  370     37
   370  -0.18046  -0.16796  -0.30000   0.01914    0.00000 -67.50912   0.00100   369  370  371     37
   371  -0.16796  -0.18046  -0.30000   0.01914    0.00000 -22.49088   0.00100   480  371  372     38
   372  -0.15028  -0.18778  -0.30000   0.01914    0.00000 -22.49088   0.00100   371  372  373     38
   373  -0.13260  -0.19510  -0.30000   0.01914    0.00000 -22.49088   0.00100   372  373  374     38
   374  -0.11492  -0.20242  -0.30000   0.01914    0.00000 -22.49088   0.00100   373  374  375     38
   375  -0.09724  -0.20974  -0.30000   0.01914    0.00000 -22.49088   0.00100   374  375  376     38
   376  -0.07956  -0.21706  -0.30000   0.01914    0.00000 -22.49088   0.00100   375  376  377     38
   377  -0.06188  -0.22438  -0.30000   0.01914    0.00000 -22.49088   0.00100   376  377  378     38
   378  -0.04420  -0.23170  -0.30000   0.01914    0.00000 -22.49088   0.00100   377  378  379     38
   379  -0.02652  -0.23902  -0.30000   0.01914    0.00000 -22.49088   0.00100   378  379  380     38
   380  -0.00884  -0.24634  -0.30000   0.01914    0.00000 -22.49088   0.00100   379  380 -140     38
   381  -0.18476  -0.00663  -0.30000   0.01435    0.00000 -67.50912   0.00100  -261  381  382     39
   382  -0.17927  -0.01989  -0.30000   0.01435    0.00000 -67.50912   0.00100   381  382  383     39
   383  -0.17378  -0.03315  -0.30000   0.01435    0.00000 -67.50912   0.00100   382  383  384     39
   384  -0.16828  -0.04641  -0.30000   0.01435    0.00000 -67.50912   0.00100   383  384  385     39
   385  -0.16280  -0.05967  -0.30000   0.01435    0.00000 -67.50912   0.00100   384  385  386     39
   386  -0.15731  -0.07293  -0.30000   0.01435    0.00000 -67.50912   0.00100   385  386  387     39
   387  -0.15182  -0.08619  -0.30000   0.01435    0.00000 -67.50912   0.00100   386  387  388     39
   388  -0.14632  -0.09945  -0.30000   0.01435    0.00000 -67.50912   0.00100   387  388  389     39
   389  -0.14083  -0.11271  -0.30000   0.01435    0.00000 -67.50912   0.00100   388  389  390     39
   390  -0.13534  -0.12597  -0.30000   0.01435    0.00000 -67.50912   0.00100   389  390  391     39
   391  -0.12597  -0.13534  -0.30000   0.01435    0.00000 -22.49088   0.00100   470  391  392     40
   392  -0.11271  -0.14083  -0.30000   0.01435    0.00000 -22.49088   0.00100   391  392  393     40
   393  -0.09945  -0.14632  -0.30000   0.01435    0.00000 -22.49088   0.00100   392  393  394     40
   394  -0.08619  -0.15182  -0.30000   0.01435    0.00000 -22.49088   0.00100   393  394  395     40
   395  -0.07293  -0.15731  -0.30000   0.01435    0.00000 -22.49088   0.00100   394  395  396     40
   396  -0.05967  -0.16280  -0.30000   0.01435    0.00000 -22.49088   0.00100   395  396  397     40
   397  -0.04641  -0.16828  -0.30000   0.01435    0.00000 -22.49088   0.00100   396  397  398     40
   398  -0.03315  -0.17378  -0.30000   0.01435    0.00000 -22.49088   0.00100   397  398  399     40
   399  -0.01989  -0.17927  -0.30000   0.01435    0.00000 -22.49088   0.00100   398  399  400     40
   400  -0.00663  -0.18476  -0.30000   0.01435    0.00000 -22.49088   0.00100   399  400 -160     40
   401  -0.12317  -0.00442  -0.30000   0.00957    0.00000 -67.50912   0.00100  -281  401  402     41
   402  -0.11951  -0.01326  -0.30000   0.00957    0.00000 -67.50912   0.00100   401  402  403     41
   403  -0.11585  -0.02210  -0.30000   0.00957    0.00000 -67.50912   0.00100   402  403  404     41
   404  -0.11219  -0.03094  -0.30000   0.00957    0.00000 -67.50912   0.00100   403  404  405     41
   405  -0.10853  -0.03978  -0.30000   0.00957    0.00000 -67.50912   0.00100   404  405  406     41
   406  -0.10487  -0.04862  -0.30000   0.00957    0.00000 -67.50912   0.00100   405  406  407     41
   407  -0.10121  -0.05746  -0.30000   0.00957    0.00000 -67.50912   0.00100   406  407  408     41
   408  -0.09755  -0.06630  -0.30000   0.00957    0.00000 -67.50912   0.00100   407  408  409     41
   409  -0.09389  -0.07514  -0.30000   0.00957    0.00000 -67.50912   0.00100   408  409  410     41
   410  -0.09023  -0.08398  -0.30000   0.00957    0.00000 -67.50912   0.00100   409  410  411     41
   411  -0.08398  -0.09023  -0.30000   0.00957    0.00000 -22.49088   0.00100   460  411  412     42
   412  -0.07514  -0.09389  -0.30000   0.00957    0.00000 -22.49088   0.00100   411  412  413     42
   413  -0.06630  -0.09755  -0.30000   0.00957    0.00000 -22.49088   0.00100   412  413  414     42
   414  -0.05746  -0.10121  -0.30000   0.00957    0.00000 -22.49088   0.00100   413  414  415     42
   415  -0.04862  -0.10487  -0.30000   0.00957    0.00000 -22.49088   0.00100   414  415  416     42
   416  -0.03978  -0.10853  -0.30000   0.00957    0.00000 -22.49088   0.00100   415  416  417     42
   417  -0.03094  -0.11219  -0.30000   0.00957    0.00000 -22.49088   0.00100   416  417  418     42
   418  -0.02210  -0.11585  -0.30000   0.00957    0.00000 -22.49088   0.00100   417  418  419     42
   419  -0.01326  -0.11951  -0.30000   0.00957    0.00000 -22.49088   0.00100   418  419  420     42
   420  -0.00442  -0.12317  -0.30000   0.00957    0.00000 -22.49088   0.00100   419  420 -180     42
   421  -0.06159  -0.00221  -0.30000   0.00478    0.00000 -67.50912   0.00100  -301  421  422     43
   422  -0.05976  -0.00663  -0.30000   0.00478    0.00000 -67.50912   0.00100   421  422  423     43
   423  -0.05793  -0.01105  -0.30000   0.00478    0.00000 -67.50912   0.00100   422  423  424     43
   424  -0.05609  -0.01547  -0.30000   0.00478    0.00000 -67.50912   0.00100   423  424  425     43
   425  -0.05427  -0.01989  -0.30000   0.00478    0.00000 -67.50912   0.00100   424  425  426     43
   426  -0.05244  -0.02431  -0.30000   0.00478    0.00000 -67.50912   0.00100   425  426  427     43
   427  -0.05061  -0.02873  -0.30000   0.00478    0.00000 -67.50912   0.00100   426  427  428     43
   428  -0.04877  -0.03315  -0.30000   0.00478    0.00000 -67.50912   0.00100   427  428  429     43
   429  -0.04695  -0.03757  -0.30000   0.00478    0.00000 -67.50912   0.00100   428  429  430     43
   430  -0.04512  -0.04199  -0.30000   0.00478    0.00000 -67.50912   0.00100   429  430  431     43
   431  -0.04199  -0.04512  -0.30000   0.00478    0.00000 -22.49088   0.00100   450  431  432     44
   432  -0.03757  -0.04695  -0.30000   0.00478    0.00000 -22.49088   0.00100   431  432  433     44
   433  -0.03315  -0.04877  -0.30000   0.00478    0.00000 -22.49088   0.00100   432  433  434     44
   434  -0.02873  -0.05061  -0.30000   0.00478    0.00000 -22.49088   0.00100   433  434  435     44
   435  -0.02431  -0.05244  -0.30000   0.00478    0.00000 -22.49088   0.00100   434  435  436     44
   436  -0.01989  -0.05427  -0.30000   0.00478    0.00000 -22.49088   0.00100   435  436  437     44
   437  -0.01547  -0.05609  -0.30000   0.00478    0.00000 -22.49088   0.00100   436  437  438     44
   438  -0.01105  -0.05793  -0.30000   0.00478    0.00000 -22.49088   0.00100   437  438  439     44
   439  -0.00663  -0.05976  -0.30000   0.00478    0.00000 -22.49088   0.00100   438  439  440     44
   440  -0.00221  -0.06159  -0.30000   0.00478    0.00000 -22.49088   0.00100   439  440 -200     44
   441  -0.00221  -0.00221  -0.30000   0.00625    0.00000-135.00000   0.00100   -81  441  442     45
   442  -0.00663  -0.00663  -0.30000   0.00625    0.00000-135.00000   0.00100   441  442  443     45
   443  -0.01105  -0.01105  -0.30000   0.00625    0.00000-135.00000   0.00100   442  443  444     45
   444  -0.01547  -0.01547  -0.30000   0.00625    0.00000-135.00000   0.00100   443  444  445     45
   445  -0.01989  -0.01989  -0.30000   0.00625    0.00000-135.00000   0.00100   444  445  446     45
   446  -0.02431  -0.02431  -0.30000   0.00625    0.00000-135.00000   0.00100   445  446  447     45
   447  -0.02873  -0.02873  -0.30000   0.00625    0.00000-135.00000   0.00100   446  447  448     45
   448  -0.03315  -0.03315  -0.30000   0.00625    0.00000-135.00000   0.00100   447  448  449     45
   449  -0.03757  -0.03757  -0.30000   0.00625    0.00000-135.00000   0.00100   448  449  450     45
   450  -0.04199  -0.04199  -0.30000   0.00625    0.00000-135.00000   0.00100   449  450  451     45
   451  -0.04641  -0.04641  -0.30000   0.00625    0.00000-135.00000   0.00100   430  451  452     46
   452  -0.05083  -0.05083  -0.30000   0.00625    0.00000-135.00000   0.00100   451  452  453     46
   453  -0.05525  -0.05525  -0.30000   0.00625    0.00000-135.00000   0.00100   452  453  454     46
   454  -0.05967  -0.05967  -0.30000   0.00625    0.00000-135.00000   0.00100   453  454  455     46
   455  -0.06409  -0.06409  -0.30000   0.00625    0.00000-135.00000   0.00100   454  455  456     46
   456  -0.06851  -0.06851  -0.30000   0.00625    0.00000-135.00000   0.00100   455  456  457     46
   457  -0.07293  -0.07293  -0.30000   0.00625    0.00000-135.00000   0.00100   456  457  458     46
   458  -0.07735  -0.07735  -0.30000   0.00625    0.00000-135.00000   0.00100   457  458  459     46
   459  -0.08177  -0.08177  -0.30000   0.00625    0.00000-135.00000   0.00100   458  459  460     46
   460  -0.08619  -0.08619  -0.30000   0.00625    0.00000-135.00000   0.00100   459  460  461     46
   461  -0.09061  -0.09061  -0.30000   0.00625    0.00000-135.00000   0.00100   410  461  462     47
   462  -0.09503  -0.09503  -0.30000   0.00625    0.00000-135.00000   0.00100   461  462  463     47
   463  -0.09945  -0.09945  -0.30000   0.00625    0.00000-135.00000   0.00100   462  463  464     47
   464  -0.10387  -0.10387  -0.30000   0.00625    0.00000-135.00000   0.00100   463  464  465     47
   465  -0.10829  -0.10829  -0.30000   0.00625    0.00000-135.00000   0.00100   464  465  466     47
   466  -0.11271  -0.11271  -0.30000   0.00625    0.00000-135.00000   0.00100   465  466  467     47
   467  -0.11713  -0.11713  -0.30000   0.00625    0.00000-135.00000   0.00100   466  467  468     47
   468  -0.12155  -0.12155  -0.30000   0.00625    0.00000-135.00000   0.00100   467  468  469     47
   469  -0.12597  -0.12597  -0.30000   0.00625    0.00000-135.00000   0.00100   468  469  470     47
   470  -0.13039  -0.13039  -0.30000   0.00625    0.00000-135.00000   0.00100   469  470  471     47
   471  -0.13481  -0.13481  -0.30000   0.00625    0.00000-135.00000   0.00100   390  471  472     48
   472  -0.13923  -0.13923  -0.30000   0.00625    0.00000-135.00000   0.00100   471  472  473     48
   473  -0.14365  -0.14365  -0.30000   0.00625    0.00000-135.00000   0.00100   472  473  474     48
   474  -0.14807  -0.14807  -0.30000   0.00625    0.00000-135.00000   0.00100   473  474  475     48
   475  -0.15249  -0.15249  -0.30000   0.00625    0.00000-135.00000   0.00100   474  475  476     48
   476  -0.15691  -0.15691  -0.30000   0.00625    0.00000-135.00000   0.00100   475  476  477     48
   477  -0.16133  -0.16133  -0.30000   0.00625    0.00000-135.00000   0.00100   476  477  478     48
   478  -0.16575  -0.16575  -0.30000   0.00625    0.00000-135.00000   0.00100   477  478  479     48
   479  -0.17017  -0.17017  -0.30000   0.00625    0.00000-135.00000   0.00100   478  479  480     48
   480  -0.17459  -0.17459  -0.30000   0.00625    0.00000-135.00000   0.00100   479  480 -370     48
   481   0.00000  -0.20000   0.00000   0.05000    0.00000  90.00000   0.02700     0  481  482     51
   482   0.00000  -0.15000   0.00000   0.05000    0.00000  90.00000   0.02700   481  482  483     51
   483   0.00000  -0.10000   0.00000   0.05000    0.00000  90.00000   0.02700   482  483  484     51
   484   0.00000  -0.05000   0.00000   0.05000    0.00000  90.00000   0.02700   483  484  485     51
   485   0.00000   0.00000   0.00000   0.05000    0.00000  90.00000   0.02700   484  485  486     51
   486   0.00000   0.05000   0.00000   0.05000    0.00000  90.00000   0.02700   485  486  487     51
   487   0.00000   0.10000   0.00000   0.05000    0.00000  90.00000   0.02700   486  487  488     51
   488   0.00000   0.15000   0.00000   0.05000    0.00000  90.00000   0.02700   487  488  489     51
   489   0.00000   0.20000   0.00000   0.05000    0.00000  90.00000   0.02700   488  489    0     51






 ***** DATA CARD NO.  1   EK   0     0     0     0  0.00000E+00  0.00000E+00  0.00000E+00  0.00000E+00  0.00000E+00  0.00000E+00
 ***** DATA CARD NO.  2   EX   0    51     5     0  1.00000E+00  0.00000E+00  0.00000E+00  0.00000E+00  0.00000E+00  0.00000E+00
 ***** DATA CARD NO.  3   RP   0    19     3  1500  0.00000E+00  0.00000E+00  1.00000E+01  4.50000E+01  0.00000E+00  0.00000E+00




                                 - - - - - - FREQUENCY - - - - - -

                                    FREQUENCY= 2.9980E+02 MHZ
                                    WAVELENGTH= 1.0000E+00 METERS




                    APPROXIMATE INTEGRATION EMPLOYED FOR SEGMENTS MORE THAN   1.000 WAVELENGTHS APART

                    THE EXTENDED THIN WIRE KERNEL WILL BE USED



                               - - - STRUCTURE IMPEDANCE LOADING - - -

                                   THIS STRUCTURE IS NOT LOADED



                                  - - - ANTENNA ENVIRONMENT - - -

                                            FREE SPACE



                                - - - MATRIX TIMING - - -

                        FILL=    0.188 SEC.,  FACTOR=    0.063 SEC.



                                          - - - ANTENNA INPUT PARAMETERS - - -

   TAG   SEG.    VOLTAGE (VOLTS)         CURRENT (AMPS)         IMPEDANCE (OHMS)        ADMITTANCE (MHOS)      POWER
   NO.   NO.    REAL        IMAG.       REAL        IMAG.       REAL        IMAG.       REAL        IMAG.     (WATTS)
    51   485 1.00000E+00 0.00000E+00 8.04662E-03-3.40433E-05 1.24274E+02 5.25772E-01 8.04662E-03-3.40433E-05 4.02331E-03



                             - - - CURRENTS AND LOCATION - - -

                                 DISTANCES IN WAVELENGTHS


  SEG.  TAG    COORD. OF SEG. CENTER     SEG.            - - - CURRENT (AMPS) - - -
  NO.   NO.     X        Y        Z      LENGTH     REAL        IMAG.       MAG.        PHASE
     1    1   0.2463   0.0088  -0.3000  0.01914   2.7327E-04  1.1481E-03  1.1802E-03   76.612
     2    1   0.2390   0.0265  -0.3000  0.01914   2.7129E-04  1.1345E-03  1.1664E-03   76.551
     3    1   0.2317   0.0442  -0.3000  0.01914   2.6728E-04  1.1074E-03  1.1392E-03   76.431
     4    1   0.2244   0.0619  -0.3000  0.01914   2.6128E-04  1.0676E-03  1.0991E-03   76.248
     5    1   0.2171   0.0796  -0.3000  0.01914   2.5331E-04  1.0155E-03  1.0467E-03   75.994
     6    1   0.2097   0.0972  -0.3000  0.01914   2.4344E-04  9.5221E-04  9.8284E-04   75.659
     7    1   0.2024   0.1149  -0.3000  0.01914   2.3173E-04  8.7866E-04  9.0871E-04   75.225
     8    1   0.1951   0.1326  -0.3000  0.01914   2.1832E-04  7.9632E-04  8.2571E-04   74.669
     9    1   0.1878   0.1503  -0.3000  0.01914   2.0341E-04  7.0737E-04  7.3604E-04   73.957
    10    1   0.1805   0.1680  -0.3000  0.01914   1.8795E-04  6.1811E-04  6.4605E-04   73.086
    11    2   0.1680   0.1805  -0.3000  0.01914   2.3790E-04  1.9925E-03  2.0066E-03   83.191
    12    2   0.1503   0.1878  -0.3000  0.01914   2.1957E-04  1.8706E-03  1.8835E-03   83.305
    13    2   0.1326   0.1951  -0.3000  0.01914   1.9883E-04  1.7168E-03  1.7282E-03   83.394
    14    2   0.1149   0.2024  -0.3000  0.01914   1.7656E-04  1.5380E-03  1.5481E-03   83.451
    15    2   0.0972   0.2097  -0.3000  0.01914   1.5297E-04  1.3379E-03  1.3466E-03   83.477
    16    2   0.0796   0.2171  -0.3000  0.01914   1.2813E-04  1.1196E-03  1.1269E-03   83.471
    17    2   0.0619   0.2244  -0.3000  0.01914   1.0206E-04  8.8630E-04  8.9216E-04   83.431
    18    2   0.0442   0.2317  -0.3000  0.01914   7.4730E-05  6.4129E-04  6.4563E-04   83.353
    19    2   0.0265   0.2390  -0.3000  0.01914   4.6056E-05  3.8797E-04  3.9069E-04   83.230
    20    2   0.0088   0.2463  -0.3000  0.01914   1.5842E-05  1.2979E-04  1.3075E-04   83.041
    21    3   0.1848   0.0066  -0.3000  0.01435   1.4899E-04  8.9121E-04  9.0358E-04   80.509
    22    3   0.1793   0.0199  -0.3000  0.01435   1.4832E-04  8.8686E-04  8.9918E-04   80.506
    23    3   0.1738   0.0331  -0.3000  0.01435   1.4696E-04  8.7803E-04  8.9024E-04   80.498
    24    3   0.1683   0.0464  -0.3000  0.01435   1.4490E-04  8.6474E-04  8.7679E-04   80.487
    25    3   0.1628   0.0597  -0.3000  0.01435   1.4217E-04  8.4716E-04  8.5901E-04   80.473
    26    3   0.1573   0.0729  -0.3000  0.01435   1.3878E-04  8.2560E-04  8.3719E-04   80.458
    27    3   0.1518   0.0862  -0.3000  0.01435   1.3478E-04  8.0053E-04  8.1179E-04   80.443
    28    3   0.1463   0.0994  -0.3000  0.01435   1.3024E-04  7.7269E-04  7.8359E-04   80.432
    29    3   0.1408   0.1127  -0.3000  0.01435   1.2536E-04  7.4346E-04  7.5396E-04   80.429
    30    3   0.1353   0.1260  -0.3000  0.01435   1.2077E-04  7.1690E-04  7.2701E-04   80.437
    31    4   0.1260   0.1353  -0.3000  0.01435   6.2040E-05  3.7204E-04  3.7718E-04   80.533
    32    4   0.1127   0.1408  -0.3000  0.01435   5.6927E-05  3.4176E-04  3.4647E-04   80.543
    33    4   0.0994   0.1463  -0.3000  0.01435   5.0916E-05  3.0451E-04  3.0873E-04   80.508
    34    4   0.0862   0.1518  -0.3000  0.01435   4.4621E-05  2.6412E-04  2.6786E-04   80.411
    35    4   0.0729   0.1573  -0.3000  0.01435   3.8178E-05  2.2194E-04  2.2520E-04   80.239
    36    4   0.0597   0.1628  -0.3000  0.01435   3.1621E-05  1.7889E-04  1.8167E-04   79.976
    37    4   0.0464   0.1683  -0.3000  0.01435   2.4937E-05  1.3578E-04  1.3805E-04   79.593
    38    4   0.0331   0.1738  -0.3000  0.01435   1.8092E-05  9.3449E-05  9.5184E-05   79.043
    39    4   0.0199   0.1793  -0.3000  0.01435   1.1042E-05  5.2960E-05  5.4099E-05   78.222
    40    4   0.0066   0.1848  -0.3000  0.01435   3.7511E-06  1.6032E-05  1.6465E-05   76.831
    41    5   0.1232   0.0044  -0.3000  0.00957   6.9590E-05  6.6049E-04  6.6414E-04   83.985
    42    5   0.1195   0.0133  -0.3000  0.00957   6.9425E-05  6.5983E-04  6.6347E-04   83.994
    43    5   0.1159   0.0221  -0.3000  0.00957   6.9092E-05  6.5840E-04  6.6202E-04   84.009
    44    5   0.1122   0.0309  -0.3000  0.00957   6.8591E-05  6.5620E-04  6.5978E-04   84.033
    45    5   0.1085   0.0398  -0.3000  0.00957   6.7927E-05  6.5326E-04  6.5678E-04   84.064
    46    5   0.1049   0.0486  -0.3000  0.00957   6.7107E-05  6.4962E-04  6.5308E-04   84.102
    47    5   0.1012   0.0575  -0.3000  0.00957   6.6143E-05  6.4539E-04  6.4877E-04   84.148
    48    5   0.0975   0.0663  -0.3000  0.00957   6.5059E-05  6.4074E-04  6.4403E-04   84.202
    49    5   0.0939   0.0751  -0.3000  0.00957   6.3899E-05  6.3592E-04  6.3913E-04   84.262
    50    5   0.0902   0.0840  -0.3000  0.00957   6.2821E-05  6.3164E-04  6.3476E-04   84.320
    51    6   0.0840   0.0902  -0.3000  0.00957   1.4760E-05  1.4803E-05  2.0904E-05   45.083
    52    6   0.0751   0.0939  -0.3000  0.00957   1.3557E-05  1.0968E-05  1.7438E-05   38.973
    53    6   0.0663   0.0975  -0.3000  0.00957   1.2134E-05  6.8282E-06  1.3923E-05   29.369
    54    6   0.0575   0.1012  -0.3000  0.00957   1.0635E-05  2.9855E-06  1.1046E-05   15.680
    55    6   0.0486   0.1049  -0.3000  0.00957   9.0967E-06 -3.2503E-07  9.1025E-06   -2.046
    56    6   0.0398   0.1085  -0.3000  0.00957   7.5290E-06 -2.9242E-06  8.0769E-06  -21.226
    57    6   0.0309   0.1122  -0.3000  0.00957   5.9324E-06 -4.6432E-06  7.5334E-06  -38.050
    58    6   0.0221   0.1159  -0.3000  0.00957   4.3012E-06 -5.2938E-06  6.8209E-06  -50.906
    59    6   0.0133   0.1195  -0.3000  0.00957   2.6267E-06 -4.6335E-06  5.3263E-06  -60.452
    60    6   0.0044   0.1232  -0.3000  0.00957   8.9593E-07 -2.2182E-06  2.3923E-06  -68.006
    61    7   0.0616   0.0022  -0.3000  0.00478   2.2076E-05  4.6857E-04  4.6909E-04   87.303
    62    7   0.0598   0.0066  -0.3000  0.00478   2.2054E-05  4.6864E-04  4.6916E-04   87.306
    63    7   0.0579   0.0111  -0.3000  0.00478   2.2009E-05  4.6873E-04  4.6925E-04   87.312
    64    7   0.0561   0.0155  -0.3000  0.00478   2.1943E-05  4.6885E-04  4.6936E-04   87.320
    65    7   0.0543   0.0199  -0.3000  0.00478   2.1857E-05  4.6899E-04  4.6949E-04   87.332
    66    7   0.0524   0.0243  -0.3000  0.00478   2.1751E-05  4.6914E-04  4.6965E-04   87.345
    67    7   0.0506   0.0287  -0.3000  0.00478   2.1628E-05  4.6932E-04  4.6982E-04   87.361
    68    7   0.0488   0.0331  -0.3000  0.00478   2.1491E-05  4.6952E-04  4.7001E-04   87.379
    69    7   0.0469   0.0376  -0.3000  0.00478   2.1346E-05  4.6974E-04  4.7022E-04   87.398
    70    7   0.0451   0.0420  -0.3000  0.00478   2.1212E-05  4.6995E-04  4.7043E-04   87.416
    71    8   0.0420   0.0451  -0.3000  0.00478   2.3206E-06 -1.6529E-05  1.6691E-05  -82.008
    72    8   0.0376   0.0469  -0.3000  0.00478   2.1590E-06 -1.5962E-05  1.6107E-05  -82.297
    73    8   0.0331   0.0488  -0.3000  0.00478   1.9583E-06 -1.5094E-05  1.5220E-05  -82.607
    74    8   0.0287   0.0506  -0.3000  0.00478   1.7376E-06 -1.3966E-05  1.4073E-05  -82.908
    75    8   0.0243   0.0524  -0.3000  0.00478   1.5020E-06 -1.2587E-05  1.2676E-05  -83.195
    76    8   0.0199   0.0543  -0.3000  0.00478   1.2543E-06 -1.0956E-05  1.1027E-05  -83.469
    77    8   0.0155   0.0561  -0.3000  0.00478   9.9579E-07 -9.0673E-06  9.1218E-06  -83.733
    78    8   0.0111   0.0579  -0.3000  0.00478   7.2678E-07 -6.9075E-06  6.9457E-06  -83.994
    79    8   0.0066   0.0598  -0.3000  0.00478   4.4710E-07 -4.4540E-06  4.4764E-06  -84.268
    80    8   0.0022   0.0616  -0.3000  0.00478   1.5470E-07 -1.6375E-06  1.6448E-06  -84.603
    81    9   0.0022   0.0022  -0.3000  0.00625   5.1825E-06  3.5089E-04  3.5093E-04   89.154
    82    9   0.0066   0.0066  -0.3000  0.00625   5.1568E-06  3.5095E-04  3.5099E-04   89.158
    83    9   0.0111   0.0111  -0.3000  0.00625   5.1056E-06  3.5107E-04  3.5110E-04   89.167
    84    9   0.0155   0.0155  -0.3000  0.00625   5.0291E-06  3.5124E-04  3.5128E-04   89.180
    85    9   0.0199   0.0199  -0.3000  0.00625   4.9281E-06  3.5147E-04  3.5151E-04   89.197
    86    9   0.0243   0.0243  -0.3000  0.00625   4.8036E-06  3.5176E-04  3.5179E-04   89.218
    87    9   0.0287   0.0287  -0.3000  0.00625   4.6577E-06  3.5210E-04  3.5213E-04   89.242
    88    9   0.0331   0.0331  -0.3000  0.00625   4.4941E-06  3.5249E-04  3.5252E-04   89.270
    89    9   0.0376   0.0376  -0.3000  0.00625   4.3207E-06  3.5290E-04  3.5293E-04   89.299
    90    9   0.0420   0.0420  -0.3000  0.00625   4.1625E-06  3.5328E-04  3.5330E-04   89.325
    91   10   0.0464   0.0464  -0.3000  0.00625   2.2867E-05  8.4007E-04  8.4038E-04   88.441
    92   10   0.0508   0.0508  -0.3000  0.00625   2.2571E-05  8.4003E-04  8.4033E-04   88.461
    93   10   0.0553   0.0553  -0.3000  0.00625   2.2164E-05  8.3959E-04  8.3989E-04   88.488
    94   10   0.0597   0.0597  -0.3000  0.00625   2.1678E-05  8.3874E-04  8.3902E-04   88.519
    95   10   0.0641   0.0641  -0.3000  0.00625   2.1123E-05  8.3750E-04  8.3776E-04   88.555
    96   10   0.0685   0.0685  -0.3000  0.00625   2.0509E-05  8.3589E-04  8.3614E-04   88.595
    97   10   0.0729   0.0729  -0.3000  0.00625   1.9846E-05  8.3397E-04  8.3420E-04   88.637
    98   10   0.0774   0.0774  -0.3000  0.00625   1.9151E-05  8.3180E-04  8.3202E-04   88.681
    99   10   0.0818   0.0818  -0.3000  0.00625   1.8450E-05  8.2951E-04  8.2971E-04   88.726
   100   10   0.0862   0.0862  -0.3000  0.00625   1.7818E-05  8.2736E-04  8.2755E-04   88.766
   101   11   0.0906   0.0906  -0.3000  0.00625   6.4789E-05  1.4402E-03  1.4416E-03   87.424
   102   11   0.0950   0.0950  -0.3000  0.00625   6.3786E-05  1.4359E-03  1.4373E-03   87.456
   103   11   0.0995   0.0995  -0.3000  0.00625   6.2474E-05  1.4298E-03  1.4311E-03   87.498
   104   11   0.1039   0.1039  -0.3000  0.00625   6.0955E-05  1.4224E-03  1.4237E-03   87.546
   105   11   0.1083   0.1083  -0.3000  0.00625   5.9264E-05  1.4139E-03  1.4151E-03   87.600
   106   11   0.1127   0.1127  -0.3000  0.00625   5.7430E-05  1.4044E-03  1.4056E-03   87.658
   107   11   0.1171   0.1171  -0.3000  0.00625   5.5485E-05  1.3942E-03  1.3953E-03   87.721
   108   11   0.1215   0.1215  -0.3000  0.00625   5.3470E-05  1.3834E-03  1.3844E-03   87.787
   109   11   0.1260   0.1260  -0.3000  0.00625   5.1447E-05  1.3725E-03  1.3734E-03   87.853
   110   11   0.1304   0.1304  -0.3000  0.00625   4.9607E-05  1.3624E-03  1.3633E-03   87.915
   111   12   0.1348   0.1348  -0.3000  0.00625   1.0423E-04  1.6842E-03  1.6874E-03   86.459
   112   12   0.1392   0.1392  -0.3000  0.00625   1.0159E-04  1.6693E-03  1.6724E-03   86.517
   113   12   0.1437   0.1437  -0.3000  0.00625   9.8254E-05  1.6503E-03  1.6533E-03   86.593
   114   12   0.1481   0.1481  -0.3000  0.00625   9.4472E-05  1.6287E-03  1.6315E-03   86.680
   115   12   0.1525   0.1525  -0.3000  0.00625   9.0316E-05  1.6049E-03  1.6074E-03   86.779
   116   12   0.1569   0.1569  -0.3000  0.00625   8.5837E-05  1.5792E-03  1.5816E-03   86.889
   117   12   0.1613   0.1613  -0.3000  0.00625   8.1083E-05  1.5520E-03  1.5541E-03   87.009
   118   12   0.1658   0.1658  -0.3000  0.00625   7.6103E-05  1.5236E-03  1.5255E-03   87.140
   119   12   0.1702   0.1702  -0.3000  0.00625   7.0965E-05  1.4943E-03  1.4960E-03   87.281
   120   12   0.1746   0.1746  -0.3000  0.00625   6.5899E-05  1.4658E-03  1.4672E-03   87.426
   121   13   0.2463  -0.0088  -0.3000  0.01914  -2.7327E-04 -1.1481E-03  1.1802E-03 -103.388
   122   13   0.2390  -0.0265  -0.3000  0.01914  -2.7129E-04 -1.1345E-03  1.1664E-03 -103.449
   123   13   0.2317  -0.0442  -0.3000  0.01914  -2.6728E-04 -1.1074E-03  1.1392E-03 -103.569
   124   13   0.2244  -0.0619  -0.3000  0.01914  -2.6128E-04 -1.0676E-03  1.0991E-03 -103.752
   125   13   0.2171  -0.0796  -0.3000  0.01914  -2.5331E-04 -1.0155E-03  1.0467E-03 -104.006
   126   13   0.2097  -0.0972  -0.3000  0.01914  -2.4344E-04 -9.5221E-04  9.8284E-04 -104.341
   127   13   0.2024  -0.1149  -0.3000  0.01914  -2.3173E-04 -8.7866E-04  9.0871E-04 -104.775
   128   13   0.1951  -0.1326  -0.3000  0.01914  -2.1832E-04 -7.9632E-04  8.2571E-04 -105.331
   129   13   0.1878  -0.1503  -0.3000  0.01914  -2.0341E-04 -7.0737E-04  7.3604E-04 -106.043
   130   13   0.1805  -0.1680  -0.3000  0.01914  -1.8795E-04 -6.1811E-04  6.4605E-04 -106.914
   131   14   0.1680  -0.1805  -0.3000  0.01914  -2.3790E-04 -1.9925E-03  2.0066E-03  -96.809
   132   14   0.1503  -0.1878  -0.3000  0.01914  -2.1957E-04 -1.8706E-03  1.8835E-03  -96.695
   133   14   0.1326  -0.1951  -0.3000  0.01914  -1.9883E-04 -1.7168E-03  1.7282E-03  -96.606
   134   14   0.1149  -0.2024  -0.3000  0.01914  -1.7656E-04 -1.5380E-03  1.5481E-03  -96.549
   135   14   0.0972  -0.2097  -0.3000  0.01914  -1.5297E-04 -1.3379E-03  1.3466E-03  -96.523
   136   14   0.0796  -0.2171  -0.3000  0.01914  -1.2813E-04 -1.1196E-03  1.1269E-03  -96.529
   137   14   0.0619  -0.2244  -0.3000  0.01914  -1.0206E-04 -8.8630E-04  8.9216E-04  -96.569
   138   14   0.0442  -0.2317  -0.3000  0.01914  -7.4730E-05 -6.4129E-04  6.4563E-04  -96.647
   139   14   0.0265  -0.2390  -0.3000  0.01914  -4.6056E-05 -3.8797E-04  3.9069E-04  -96.770
   140   14   0.0088  -0.2463  -0.3000  0.01914  -1.5842E-05 -1.2979E-04  1.3075E-04  -96.959
   141   15   0.1848  -0.0066  -0.3000  0.01435  -1.4899E-04 -8.9121E-04  9.0358E-04  -99.491
   142   15   0.1793  -0.0199  -0.3000  0.01435  -1.4832E-04 -8.8686E-04  8.9918E-04  -99.494
   143   15   0.1738  -0.0331  -0.3000  0.01435  -1.4696E-04 -8.7803E-04  8.9024E-04  -99.502
   144   15   0.1683  -0.0464  -0.3000  0.01435  -1.4490E-04 -8.6474E-04  8.7679E-04  -99.513
   145   15   0.1628  -0.0597  -0.3000  0.01435  -1.4217E-04 -8.4716E-04  8.5901E-04  -99.527
   146   15   0.1573  -0.0729  -0.3000  0.01435  -1.3878E-04 -8.2560E-04  8.3719E-04  -99.542
   147   15   0.1518  -0.0862  -0.3000  0.01435  -1.3478E-04 -8.0053E-04  8.1179E-04  -99.557
   148   15   0.1463  -0.0994  -0.3000  0.01435  -1.3024E-04 -7.7269E-04  7.8359E-04  -99.568
   149   15   0.1408  -0.1127  -0.3000  0.01435  -1.2536E-04 -7.4346E-04  7.5396E-04  -99.571
   150   15   0.1353  -0.1260  -0.3000  0.01435  -1.2077E-04 -7.1690E-04  7.2701E-04  -99.563
   151   16   0.1260  -0.1353  -0.3000  0.01435  -6.2040E-05 -3.7204E-04  3.7718E-04  -99.467
   152   16   0.1127  -0.1408  -0.3000  0.01435  -5.6927E-05 -3.4176E-04  3.4647E-04  -99.457
   153   16   0.0994  -0.1463  -0.3000  0.01435  -5.0916E-05 -3.0451E-04  3.0873E-04  -99.492
   154   16   0.0862  -0.1518  -0.3000  0.01435  -4.4621E-05 -2.6412E-04  2.6786E-04  -99.589
   155   16   0.0729  -0.1573  -0.3000  0.01435  -3.8178E-05 -2.2194E-04  2.2520E-04  -99.761
   156   16   0.0597  -0.1628  -0.3000  0.01435  -3.1621E-05 -1.7889E-04  1.8167E-04 -100.024
   157   16   0.0464  -0.1683  -0.3000  0.01435  -2.4937E-05 -1.3578E-04  1.3805E-04 -100.407
   158   16   0.0331  -0.1738  -0.3000  0.01435  -1.8092E-05 -9.3449E-05  9.5184E-05 -100.957
   159   16   0.0199  -0.1793  -0.3000  0.01435  -1.1042E-05 -5.2960E-05  5.4099E-05 -101.778
   160   16   0.0066  -0.1848  -0.3000  0.01435  -3.7511E-06 -1.6032E-05  1.6465E-05 -103.169
   161   17   0.1232  -0.0044  -0.3000  0.00957  -6.9590E-05 -6.6049E-04  6.6414E-04  -96.015
   162   17   0.1195  -0.0133  -0.3000  0.00957  -6.9425E-05 -6.5983E-04  6.6347E-04  -96.006
   163   17   0.1159  -0.0221  -0.3000  0.00957  -6.9092E-05 -6.5840E-04  6.6202E-04  -95.991
   164   17   0.1122  -0.0309  -0.3000  0.00957  -6.8591E-05 -6.5620E-04  6.5978E-04  -95.967
   165   17   0.1085  -0.0398  -0.3000  0.00957  -6.7927E-05 -6.5326E-04  6.5678E-04  -95.936
   166   17   0.1049  -0.0486  -0.3000  0.00957  -6.7107E-05 -6.4962E-04  6.5308E-04  -95.898
   167   17   0.1012  -0.0575  -0.3000  0.00957  -6.6143E-05 -6.4539E-04  6.4877E-04  -95.852
   168   17   0.0975  -0.0663  -0.3000  0.00957  -6.5059E-05 -6.4074E-04  6.4403E-04  -95.798
   169   17   0.0939  -0.0751  -0.3000  0.00957  -6.3899E-05 -6.3592E-04  6.3913E-04  -95.738
   170   17   0.0902  -0.0840  -0.3000  0.00957  -6.2821E-05 -6.3164E-04  6.3476E-04  -95.680
   171   18   0.0840  -0.0902  -0.3000  0.00957  -1.4760E-05 -1.4803E-05  2.0904E-05 -134.917
   172   18   0.0751  -0.0939  -0.3000  0.00957  -1.3557E-05 -1.0968E-05  1.7438E-05 -141.027
   173   18   0.0663  -0.0975  -0.3000  0.00957  -1.2134E-05 -6.8282E-06  1.3923E-05 -150.631
   174   18   0.0575  -0.1012  -0.3000  0.00957  -1.0635E-05 -2.9855E-06  1.1046E-05 -164.320
   175   18   0.0486  -0.1049  -0.3000  0.00957  -9.0967E-06  3.2503E-07  9.1025E-06  177.954
   176   18   0.0398  -0.1085  -0.3000  0.00957  -7.5290E-06  2.9242E-06  8.0769E-06  158.774
   177   18   0.0309  -0.1122  -0.3000  0.00957  -5.9324E-06  4.6432E-06  7.5334E-06  141.950
   178   18   0.0221  -0.1159  -0.3000  0.00957  -4.3012E-06  5.2938E-06  6.8209E-06  129.094
   179   18   0.0133  -0.1195  -0.3000  0.00957  -2.6267E-06  4.6335E-06  5.3263E-06  119.548
   180   18   0.0044  -0.1232  -0.3000  0.00957  -8.9593E-07  2.2182E-06  2.3923E-06  111.994
   181   19   0.0616  -0.0022  -0.3000  0.00478  -2.2076E-05 -4.6857E-04  4.6909E-04  -92.697
   182   19   0.0598  -0.0066  -0.3000  0.00478  -2.2054E-05 -4.6864E-04  4.6916E-04  -92.694
   183   19   0.0579  -0.0111  -0.3000  0.00478  -2.2009E-05 -4.6873E-04  4.6925E-04  -92.688
   184   19   0.0561  -0.0155  -0.3000  0.00478  -2.1943E-05 -4.6885E-04  4.6936E-04  -92.680
   185   19   0.0543  -0.0199  -0.3000  0.00478  -2.1857E-05 -4.6899E-04  4.6949E-04  -92.668
   186   19   0.0524  -0.0243  -0.3000  0.00478  -2.1751E-05 -4.6914E-04  4.6965E-04  -92.655
   187   19   0.0506  -0.0287  -0.3000  0.00478  -2.1628E-05 -4.6932E-04  4.6982E-04  -92.639
   188   19   0.0488  -0.0331  -0.3000  0.00478  -2.1491E-05 -4.6952E-04  4.7001E-04  -92.621
   189   19   0.0469  -0.0376  -0.3000  0.00478  -2.1346E-05 -4.6974E-04  4.7022E-04  -92.602
   190   19   0.0451  -0.0420  -0.3000  0.00478  -2.1212E-05 -4.6995E-04  4.7043E-04  -92.584
   191   20   0.0420  -0.0451  -0.3000  0.00478  -2.3206E-06  1.6529E-05  1.6691E-05   97.992
   192   20   0.0376  -0.0469  -0.3000  0.00478  -2.1590E-06  1.5962E-05  1.6107E-05   97.703
   193   20   0.0331  -0.0488  -0.3000  0.00478  -1.9583E-06  1.5094E-05  1.5220E-05   97.393
   194   20   0.0287  -0.0506  -0.3000  0.00478  -1.7376E-06  1.3966E-05  1.4073E-05   97.092
   195   20   0.0243  -0.0524  -0.3000  0.00478  -1.5020E-06  1.2587E-05  1.2676E-05   96.805
   196   20   0.0199  -0.0543  -0.3000  0.00478  -1.2543E-06  1.0956E-05  1.1027E-05   96.531
   197   20   0.0155  -0.0561  -0.3000  0.00478  -9.9579E-07  9.0673E-06  9.1218E-06   96.267
   198   20   0.0111  -0.0579  -0.3000  0.00478  -7.2678E-07  6.9075E-06  6.9457E-06   96.006
   199   20   0.0066  -0.0598  -0.3000  0.00478  -4.4710E-07  4.4540E-06  4.4764E-06   95.732
   200   20   0.0022  -0.0616  -0.3000  0.00478  -1.5470E-07  1.6375E-06  1.6448E-06   95.397
   201   21   0.0022  -0.0022  -0.3000  0.00625  -5.1825E-06 -3.5089E-04  3.5093E-04  -90.846
   202   21   0.0066  -0.0066  -0.3000  0.00625  -5.1568E-06 -3.5095E-04  3.5099E-04  -90.842
   203   21   0.0111  -0.0111  -0.3000  0.00625  -5.1056E-06 -3.5107E-04  3.5110E-04  -90.833
   204   21   0.0155  -0.0155  -0.3000  0.00625  -5.0291E-06 -3.5124E-04  3.5128E-04  -90.820
   205   21   0.0199  -0.0199  -0.3000  0.00625  -4.9281E-06 -3.5147E-04  3.5151E-04  -90.803
   206   21   0.0243  -0.0243  -0.3000  0.00625  -4.8036E-06 -3.5176E-04  3.5179E-04  -90.782
   207   21   0.0287  -0.0287  -0.3000  0.00625  -4.6577E-06 -3.5210E-04  3.5213E-04  -90.758
   208   21   0.0331  -0.0331  -0.3000  0.00625  -4.4941E-06 -3.5249E-04  3.5252E-04  -90.730
   209   21   0.0376  -0.0376  -0.3000  0.00625  -4.3207E-06 -3.5290E-04  3.5293E-04  -90.701
   210   21   0.0420  -0.0420  -0.3000  0.00625  -4.1625E-06 -3.5328E-04  3.5330E-04  -90.675
   211   22   0.0464  -0.0464  -0.3000  0.00625  -2.2867E-05 -8.4007E-04  8.4038E-04  -91.559
   212   22   0.0508  -0.0508  -0.3000  0.00625  -2.2571E-05 -8.4003E-04  8.4033E-04  -91.539
   213   22   0.0553  -0.0553  -0.3000  0.00625  -2.2164E-05 -8.3959E-04  8.3989E-04  -91.512
   214   22   0.0597  -0.0597  -0.3000  0.00625  -2.1678E-05 -8.3874E-04  8.3902E-04  -91.481
   215   22   0.0641  -0.0641  -0.3000  0.00625  -2.1123E-05 -8.3750E-04  8.3776E-04  -91.445
   216   22   0.0685  -0.0685  -0.3000  0.00625  -2.0509E-05 -8.3589E-04  8.3614E-04  -91.405
   217   22   0.0729  -0.0729  -0.3000  0.00625  -1.9846E-05 -8.3397E-04  8.3420E-04  -91.363
   218   22   0.0774  -0.0774  -0.3000  0.00625  -1.9151E-05 -8.3180E-04  8.3202E-04  -91.319
   219   22   0.0818  -0.0818  -0.3000  0.00625  -1.8450E-05 -8.2951E-04  8.2971E-04  -91.274
   220   22   0.0862  -0.0862  -0.3000  0.00625  -1.7818E-05 -8.2736E-04  8.2755E-04  -91.234
   221   23   0.0906  -0.0906  -0.3000  0.00625  -6.4789E-05 -1.4402E-03  1.4416E-03  -92.576
   222   23   0.0950  -0.0950  -0.3000  0.00625  -6.3786E-05 -1.4359E-03  1.4373E-03  -92.544
   223   23   0.0995  -0.0995  -0.3000  0.00625  -6.2474E-05 -1.4298E-03  1.4311E-03  -92.502
   224   23   0.1039  -0.1039  -0.3000  0.00625  -6.0955E-05 -1.4224E-03  1.4237E-03  -92.454
   225   23   0.1083  -0.1083  -0.3000  0.00625  -5.9264E-05 -1.4139E-03  1.4151E-03  -92.400
   226   23   0.1127  -0.1127  -0.3000  0.00625  -5.7430E-05 -1.4044E-03  1.4056E-03  -92.342
   227   23   0.1171  -0.1171  -0.3000  0.00625  -5.5485E-05 -1.3942E-03  1.3953E-03  -92.279
   228   23   0.1215  -0.1215  -0.3000  0.00625  -5.3470E-05 -1.3834E-03  1.3844E-03  -92.213
   229   23   0.1260  -0.1260  -0.3000  0.00625  -5.1447E-05 -1.3725E-03  1.3734E-03  -92.147
   230   23   0.1304  -0.1304  -0.3000  0.00625  -4.9607E-05 -1.3624E-03  1.3633E-03  -92.085
   231   24   0.1348  -0.1348  -0.3000  0.00625  -1.0423E-04 -1.6842E-03  1.6874E-03  -93.541
   232   24   0.1392  -0.1392  -0.3000  0.00625  -1.0159E-04 -1.6693E-03  1.6724E-03  -93.483
   233   24   0.1437  -0.1437  -0.3000  0.00625  -9.8254E-05 -1.6503E-03  1.6533E-03  -93.407
   234   24   0.1481  -0.1481  -0.3000  0.00625  -9.4472E-05 -1.6287E-03  1.6315E-03  -93.320
   235   24   0.1525  -0.1525  -0.3000  0.00625  -9.0316E-05 -1.6049E-03  1.6074E-03  -93.221
   236   24   0.1569  -0.1569  -0.3000  0.00625  -8.5837E-05 -1.5792E-03  1.5816E-03  -93.111
   237   24   0.1613  -0.1613  -0.3000  0.00625  -8.1083E-05 -1.5520E-03  1.5541E-03  -92.991
   238   24   0.1658  -0.1658  -0.3000  0.00625  -7.6103E-05 -1.5236E-03  1.5255E-03  -92.860
   239   24   0.1702  -0.1702  -0.3000  0.00625  -7.0965E-05 -1.4943E-03  1.4960E-03  -92.719
   240   24   0.1746  -0.1746  -0.3000  0.00625  -6.5899E-05 -1.4658E-03  1.4672E-03  -92.574
   241   25  -0.2463   0.0088  -0.3000  0.01914   2.7327E-04  1.1481E-03  1.1802E-03   76.612
   242   25  -0.2390   0.0265  -0.3000  0.01914   2.7129E-04  1.1345E-03  1.1664E-03   76.551
   243   25  -0.2317   0.0442  -0.3000  0.01914   2.6728E-04  1.1074E-03  1.1392E-03   76.431
   244   25  -0.2244   0.0619  -0.3000  0.01914   2.6128E-04  1.0676E-03  1.0991E-03   76.248
   245   25  -0.2171   0.0796  -0.3000  0.01914   2.5331E-04  1.0155E-03  1.0467E-03   75.994
   246   25  -0.2097   0.0972  -0.3000  0.01914   2.4344E-04  9.5221E-04  9.8284E-04   75.659
   247   25  -0.2024   0.1149  -0.3000  0.01914   2.3173E-04  8.7866E-04  9.0871E-04   75.225
   248   25  -0.1951   0.1326  -0.3000  0.01914   2.1832E-04  7.9632E-04  8.2571E-04   74.669
   249   25  -0.1878   0.1503  -0.3000  0.01914   2.0341E-04  7.0737E-04  7.3604E-04   73.957
   250   25  -0.1805   0.1680  -0.3000  0.01914   1.8795E-04  6.1811E-04  6.4605E-04   73.086
   251   26  -0.1680   0.1805  -0.3000  0.01914   2.3790E-04  1.9925E-03  2.0066E-03   83.191
   252   26  -0.1503   0.1878  -0.3000  0.01914   2.1957E-04  1.8706E-03  1.8835E-03   83.305
   253   26  -0.1326   0.1951  -0.3000  0.01914   1.9883E-04  1.7168E-03  1.7282E-03   83.394
   254   26  -0.1149   0.2024  -0.3000  0.01914   1.7656E-04  1.5380E-03  1.5481E-03   83.451
   255   26  -0.0972   0.2097  -0.3000  0.01914   1.5297E-04  1.3379E-03  1.3466E-03   83.477
   256   26  -0.0796   0.2171  -0.3000  0.01914   1.2813E-04  1.1196E-03  1.1269E-03   83.471
   257   26  -0.0619   0.2244  -0.3000  0.01914   1.0206E-04  8.8630E-04  8.9216E-04   83.431
   258   26  -0.0442   0.2317  -0.3000  0.01914   7.4730E-05  6.4129E-04  6.4563E-04   83.353
   259   26  -0.0265   0.2390  -0.3000  0.01914   4.6056E-05  3.8797E-04  3.9069E-04   83.230
   260   26  -0.0088   0.2463  -0.3000  0.01914   1.5842E-05  1.2979E-04  1.3075E-04   83.041
   261   27  -0.1848   0.0066  -0.3000  0.01435   1.4899E-04  8.9121E-04  9.0358E-04   80.509
[...]
   388   39  -0.1463  -0.0994  -0.3000  0.01435  -1.3024E-04 -7.7269E-04  7.8359E-04  -99.568
   389   39  -0.1408  -0.1127  -0.3000  0.01435  -1.2536E-04 -7.4346E-04  7.5396E-04  -99.571
   390   39  -0.1353  -0.1260  -0.3000  0.01435  -1.2077E-04 -7.1690E-04  7.2701E-04  -99.563
   391   40  -0.1260  -0.1353  -0.3000  0.01435  -6.2040E-05 -3.7204E-04  3.7718E-04  -99.467
   392   40  -0.1127  -0.1408  -0.3000  0.01435  -5.6927E-05 -3.4176E-04  3.4647E-04  -99.457
   393   40  -0.0994  -0.1463  -0.3000  0.01435  -5.0916E-05 -3.0451E-04  3.0873E-04  -99.492
   394   40  -0.0862  -0.1518  -0.3000  0.01435  -4.4621E-05 -2.6412E-04  2.6786E-04  -99.589
   395   40  -0.0729  -0.1573  -0.3000  0.01435  -3.8178E-05 -2.2194E-04  2.2520E-04  -99.761
   396   40  -0.0597  -0.1628  -0.3000  0.01435  -3.1621E-05 -1.7889E-04  1.8167E-04 -100.024
   397   40  -0.0464  -0.1683  -0.3000  0.01435  -2.4937E-05 -1.3578E-04  1.3805E-04 -100.407
   398   40  -0.0331  -0.1738  -0.3000  0.01435  -1.8092E-05 -9.3449E-05  9.5184E-05 -100.957
   399   40  -0.0199  -0.1793  -0.3000  0.01435  -1.1042E-05 -5.2960E-05  5.4099E-05 -101.778
   400   40  -0.0066  -0.1848  -0.3000  0.01435  -3.7511E-06 -1.6032E-05  1.6465E-05 -103.169
   401   41  -0.1232  -0.0044  -0.3000  0.00957  -6.9590E-05 -6.6049E-04  6.6414E-04  -96.015
   402   41  -0.1195  -0.0133  -0.3000  0.00957  -6.9425E-05 -6.5983E-04  6.6347E-04  -96.006
   403   41  -0.1159  -0.0221  -0.3000  0.00957  -6.9092E-05 -6.5840E-04  6.6202E-04  -95.991
   404   41  -0.1122  -0.0309  -0.3000  0.00957  -6.8591E-05 -6.5620E-04  6.5978E-04  -95.967
   405   41  -0.1085  -0.0398  -0.3000  0.00957  -6.7927E-05 -6.5326E-04  6.5678E-04  -95.936
   406   41  -0.1049  -0.0486  -0.3000  0.00957  -6.7107E-05 -6.4962E-04  6.5308E-04  -95.898
   407   41  -0.1012  -0.0575  -0.3000  0.00957  -6.6143E-05 -6.4539E-04  6.4877E-04  -95.852
   408   41  -0.0975  -0.0663  -0.3000  0.00957  -6.5059E-05 -6.4074E-04  6.4403E-04  -95.798
   409   41  -0.0939  -0.0751  -0.3000  0.00957  -6.3899E-05 -6.3592E-04  6.3913E-04  -95.738
   410   41  -0.0902  -0.0840  -0.3000  0.00957  -6.2821E-05 -6.3164E-04  6.3476E-04  -95.680
   411   42  -0.0840  -0.0902  -0.3000  0.00957  -1.4760E-05 -1.4803E-05  2.0904E-05 -134.917
   412   42  -0.0751  -0.0939  -0.3000  0.00957  -1.3557E-05 -1.0968E-05  1.7438E-05 -141.027
   413   42  -0.0663  -0.0975  -0.3000  0.00957  -1.2134E-05 -6.8282E-06  1.3923E-05 -150.631
   414   42  -0.0575  -0.1012  -0.3000  0.00957  -1.0635E-05 -2.9855E-06  1.1046E-05 -164.320
   415   42  -0.0486  -0.1049  -0.3000  0.00957  -9.0967E-06  3.2503E-07  9.1025E-06  177.954
   416   42  -0.0398  -0.1085  -0.3000  0.00957  -7.5290E-06  2.9242E-06  8.0769E-06  158.774
   417   42  -0.0309  -0.1122  -0.3000  0.00957  -5.9324E-06  4.6432E-06  7.5334E-06  141.950
   418   42  -0.0221  -0.1159  -0.3000  0.00957  -4.3012E-06  5.2938E-06  6.8209E-06  129.094
   419   42  -0.0133  -0.1195  -0.3000  0.00957  -2.6267E-06  4.6335E-06  5.3263E-06  119.548
   420   42  -0.0044  -0.1232  -0.3000  0.00957  -8.9593E-07  2.2182E-06  2.3923E-06  111.994
   421   43  -0.0616  -0.0022  -0.3000  0.00478  -2.2076E-05 -4.6857E-04  4.6909E-04  -92.697
   422   43  -0.0598  -0.0066  -0.3000  0.00478  -2.2054E-05 -4.6864E-04  4.6916E-04  -92.694
   423   43  -0.0579  -0.0111  -0.3000  0.00478  -2.2009E-05 -4.6873E-04  4.6925E-04  -92.688
   424   43  -0.0561  -0.0155  -0.3000  0.00478  -2.1943E-05 -4.6885E-04  4.6936E-04  -92.680
   425   43  -0.0543  -0.0199  -0.3000  0.00478  -2.1857E-05 -4.6899E-04  4.6949E-04  -92.668
   426   43  -0.0524  -0.0243  -0.3000  0.00478  -2.1751E-05 -4.6914E-04  4.6965E-04  -92.655
   427   43  -0.0506  -0.0287  -0.3000  0.00478  -2.1628E-05 -4.6932E-04  4.6982E-04  -92.639
   428   43  -0.0488  -0.0331  -0.3000  0.00478  -2.1491E-05 -4.6952E-04  4.7001E-04  -92.621
   429   43  -0.0469  -0.0376  -0.3000  0.00478  -2.1346E-05 -4.6974E-04  4.7022E-04  -92.602
   430   43  -0.0451  -0.0420  -0.3000  0.00478  -2.1212E-05 -4.6995E-04  4.7043E-04  -92.584
   431   44  -0.0420  -0.0451  -0.3000  0.00478  -2.3206E-06  1.6529E-05  1.6691E-05   97.992
   432   44  -0.0376  -0.0469  -0.3000  0.00478  -2.1590E-06  1.5962E-05  1.6107E-05   97.703
   433   44  -0.0331  -0.0488  -0.3000  0.00478  -1.9583E-06  1.5094E-05  1.5220E-05   97.393
   434   44  -0.0287  -0.0506  -0.3000  0.00478  -1.7376E-06  1.3966E-05  1.4073E-05   97.092
   435   44  -0.0243  -0.0524  -0.3000  0.00478  -1.5020E-06  1.2587E-05  1.2676E-05   96.805
   436   44  -0.0199  -0.0543  -0.3000  0.00478  -1.2543E-06  1.0956E-05  1.1027E-05   96.531
   437   44  -0.0155  -0.0561  -0.3000  0.00478  -9.9579E-07  9.0673E-06  9.1218E-06   96.267
   438   44  -0.0111  -0.0579  -0.3000  0.00478  -7.2678E-07  6.9075E-06  6.9457E-06   96.006
   439   44  -0.0066  -0.0598  -0.3000  0.00478  -4.4710E-07  4.4540E-06  4.4764E-06   95.732
   440   44  -0.0022  -0.0616  -0.3000  0.00478  -1.5470E-07  1.6375E-06  1.6448E-06   95.397
   441   45  -0.0022  -0.0022  -0.3000  0.00625  -5.1825E-06 -3.5089E-04  3.5093E-04  -90.846
   442   45  -0.0066  -0.0066  -0.3000  0.00625  -5.1568E-06 -3.5095E-04  3.5099E-04  -90.842
   443   45  -0.0111  -0.0111  -0.3000  0.00625  -5.1056E-06 -3.5107E-04  3.5110E-04  -90.833
   444   45  -0.0155  -0.0155  -0.3000  0.00625  -5.0291E-06 -3.5124E-04  3.5128E-04  -90.820
   445   45  -0.0199  -0.0199  -0.3000  0.00625  -4.9281E-06 -3.5147E-04  3.5151E-04  -90.803
   446   45  -0.0243  -0.0243  -0.3000  0.00625  -4.8036E-06 -3.5176E-04  3.5179E-04  -90.782
   447   45  -0.0287  -0.0287  -0.3000  0.00625  -4.6577E-06 -3.5210E-04  3.5213E-04  -90.758
   448   45  -0.0331  -0.0331  -0.3000  0.00625  -4.4941E-06 -3.5249E-04  3.5252E-04  -90.730
   449   45  -0.0376  -0.0376  -0.3000  0.00625  -4.3207E-06 -3.5290E-04  3.5293E-04  -90.701
   450   45  -0.0420  -0.0420  -0.3000  0.00625  -4.1625E-06 -3.5328E-04  3.5330E-04  -90.675
   451   46  -0.0464  -0.0464  -0.3000  0.00625  -2.2867E-05 -8.4007E-04  8.4038E-04  -91.559
   452   46  -0.0508  -0.0508  -0.3000  0.00625  -2.2571E-05 -8.4003E-04  8.4033E-04  -91.539
   453   46  -0.0553  -0.0553  -0.3000  0.00625  -2.2164E-05 -8.3959E-04  8.3989E-04  -91.512
   454   46  -0.0597  -0.0597  -0.3000  0.00625  -2.1678E-05 -8.3874E-04  8.3902E-04  -91.481
   455   46  -0.0641  -0.0641  -0.3000  0.00625  -2.1123E-05 -8.3750E-04  8.3776E-04  -91.445
   456   46  -0.0685  -0.0685  -0.3000  0.00625  -2.0509E-05 -8.3589E-04  8.3614E-04  -91.405
   457   46  -0.0729  -0.0729  -0.3000  0.00625  -1.9846E-05 -8.3397E-04  8.3420E-04  -91.363
   458   46  -0.0774  -0.0774  -0.3000  0.00625  -1.9151E-05 -8.3180E-04  8.3202E-04  -91.319
   459   46  -0.0818  -0.0818  -0.3000  0.00625  -1.8450E-05 -8.2951E-04  8.2971E-04  -91.274
   460   46  -0.0862  -0.0862  -0.3000  0.00625  -1.7818E-05 -8.2736E-04  8.2755E-04  -91.234
   461   47  -0.0906  -0.0906  -0.3000  0.00625  -6.4789E-05 -1.4402E-03  1.4416E-03  -92.576
   462   47  -0.0950  -0.0950  -0.3000  0.00625  -6.3786E-05 -1.4359E-03  1.4373E-03  -92.544
   463   47  -0.0995  -0.0995  -0.3000  0.00625  -6.2474E-05 -1.4298E-03  1.4311E-03  -92.502
   464   47  -0.1039  -0.1039  -0.3000  0.00625  -6.0955E-05 -1.4224E-03  1.4237E-03  -92.454
   465   47  -0.1083  -0.1083  -0.3000  0.00625  -5.9264E-05 -1.4139E-03  1.4151E-03  -92.400
   466   47  -0.1127  -0.1127  -0.3000  0.00625  -5.7430E-05 -1.4044E-03  1.4056E-03  -92.342
   467   47  -0.1171  -0.1171  -0.3000  0.00625  -5.5485E-05 -1.3942E-03  1.3953E-03  -92.279
   468   47  -0.1215  -0.1215  -0.3000  0.00625  -5.3470E-05 -1.3834E-03  1.3844E-03  -92.213
   469   47  -0.1260  -0.1260  -0.3000  0.00625  -5.1447E-05 -1.3725E-03  1.3734E-03  -92.147
   470   47  -0.1304  -0.1304  -0.3000  0.00625  -4.9607E-05 -1.3624E-03  1.3633E-03  -92.085
   471   48  -0.1348  -0.1348  -0.3000  0.00625  -1.0423E-04 -1.6842E-03  1.6874E-03  -93.541
   472   48  -0.1392  -0.1392  -0.3000  0.00625  -1.0159E-04 -1.6693E-03  1.6724E-03  -93.483
   473   48  -0.1437  -0.1437  -0.3000  0.00625  -9.8254E-05 -1.6503E-03  1.6533E-03  -93.407
   474   48  -0.1481  -0.1481  -0.3000  0.00625  -9.4472E-05 -1.6287E-03  1.6315E-03  -93.320
   475   48  -0.1525  -0.1525  -0.3000  0.00625  -9.0316E-05 -1.6049E-03  1.6074E-03  -93.221
   476   48  -0.1569  -0.1569  -0.3000  0.00625  -8.5837E-05 -1.5792E-03  1.5816E-03  -93.111
   477   48  -0.1613  -0.1613  -0.3000  0.00625  -8.1083E-05 -1.5520E-03  1.5541E-03  -92.991
   478   48  -0.1658  -0.1658  -0.3000  0.00625  -7.6103E-05 -1.5236E-03  1.5255E-03  -92.860
   479   48  -0.1702  -0.1702  -0.3000  0.00625  -7.0965E-05 -1.4943E-03  1.4960E-03  -92.719
   480   48  -0.1746  -0.1746  -0.3000  0.00625  -6.5899E-05 -1.4658E-03  1.4672E-03  -92.574
   481   51   0.0000  -0.2000   0.0000  0.05000   2.7826E-03 -2.0556E-03  3.4595E-03  -36.455
   482   51   0.0000  -0.1500   0.0000  0.05000   5.0968E-03 -3.2791E-03  6.0605E-03  -32.756
   483   51   0.0000  -0.1000   0.0000  0.05000   6.7087E-03 -3.5475E-03  7.5889E-03  -27.869
   484   51   0.0000  -0.0500   0.0000  0.05000   7.7075E-03 -2.6805E-03  8.1603E-03  -19.177
   485   51   0.0000   0.0000   0.0000  0.05000   8.0466E-03 -3.4043E-05  8.0467E-03   -0.242
   486   51   0.0000   0.0500   0.0000  0.05000   7.7075E-03 -2.6805E-03  8.1603E-03  -19.177
   487   51   0.0000   0.1000   0.0000  0.05000   6.7087E-03 -3.5475E-03  7.5889E-03  -27.869
   488   51   0.0000   0.1500   0.0000  0.05000   5.0968E-03 -3.2791E-03  6.0605E-03  -32.756
   489   51   0.0000   0.2000   0.0000  0.05000   2.7826E-03 -2.0556E-03  3.4595E-03  -36.455



                                        - - - POWER BUDGET - - -

                                           INPUT POWER   = 4.0233E-03 WATTS
                                           RADIATED POWER= 4.0233E-03 WATTS
                                           STRUCTURE LOSS= 0.0000E+00 WATTS
                                           NETWORK LOSS  = 0.0000E+00 WATTS
                                           EFFICIENCY    = 100.00 PERCENT



                                                - - - RADIATION PATTERNS - - -

  - - ANGLES - -           - POWER GAINS -       - - - POLARIZATION - - -    - - - E(THETA) - - -    - - - E(PHI) - - -
  THETA     PHI        VERT.   HOR.    TOTAL      AXIAL     TILT   SENSE     MAGNITUDE    PHASE      MAGNITUDE    PHASE 
 DEGREES  DEGREES       DB      DB      DB        RATIO     DEG.              VOLTS/M    DEGREES      VOLTS/M    DEGREES
    0.00     0.00    -999.99    6.35    6.35    0.00000   -90.00  LINEAR    7.72028E-15   139.12    1.02009E+00  -114.69
   10.00     0.00    -999.99    6.29    6.29    0.00000   -90.00  LINEAR    3.80272E-15   110.95    1.01322E+00  -113.90
   20.00     0.00    -999.99    6.11    6.11    0.00000   -90.00  LINEAR    3.58898E-15    43.69    9.92498E-01  -111.60
   30.00     0.00    -999.99    5.80    5.80    0.00000   -90.00  LINEAR    6.09684E-15    24.13    9.57675E-01  -108.09
   40.00     0.00    -999.99    5.35    5.35    0.00000   -90.00  LINEAR    7.81041E-15    26.29    9.08919E-01  -103.73
   50.00     0.00    -999.99    4.74    4.74    0.00000   -90.00  LINEAR    8.26324E-15    35.55    8.47346E-01   -98.99
   60.00     0.00    -999.99    3.96    3.96    0.00000   -90.00  LINEAR    7.39479E-15    49.20    7.75265E-01   -94.30
   70.00     0.00    -999.99    3.02    3.02    0.00000   -90.00  LINEAR    5.51300E-15    64.93    6.95767E-01   -90.01
   80.00     0.00    -999.99    1.91    1.91    0.00000   -90.00  LINEAR    2.94003E-15    82.74    6.11716E-01   -86.42
   90.00     0.00    -999.99    0.57    0.57    0.00000    90.00  LINEAR    8.74608E-26   -78.87    5.24760E-01   -83.75
  100.00     0.00    -999.99   -1.05   -1.05    0.00000    90.00  LINEAR    2.94287E-15   -59.97    4.35320E-01   -82.42
  110.00     0.00    -999.99   -3.09   -3.09    0.00000    90.00  LINEAR    5.49476E-15   -41.08    3.44198E-01   -83.47
  120.00     0.00    -999.99   -5.66   -5.66    0.00000    90.00  LINEAR    7.41267E-15   -23.06    2.56070E-01   -89.52
  130.00     0.00    -999.99   -8.43   -8.43    0.00000   -90.00  LINEAR    8.20965E-15    -5.97    1.86079E-01  -106.23
  140.00     0.00    -999.99   -9.49   -9.49    0.00000   -90.00  LINEAR    7.84853E-15    12.12    1.64657E-01  -135.72
  150.00     0.00    -999.99   -7.88   -7.88    0.00000   -90.00  LINEAR    6.07919E-15    31.20    1.98331E-01  -159.89
  160.00     0.00    -999.99   -5.91   -5.91    0.00000   -90.00  LINEAR    3.64733E-15    67.64    2.48848E-01  -171.14
  170.00     0.00    -999.99   -4.66   -4.66    0.00000    90.00  LINEAR    3.85966E-15   143.47    2.87339E-01  -175.48
  180.00     0.00    -999.99   -4.24   -4.24    0.00000    90.00  LINEAR    7.69786E-15   174.92    3.01339E-01  -176.60
    0.00    45.00       3.34    3.34    6.35    0.00000    45.00  LINEAR    7.21311E-01  -114.69    7.21311E-01  -114.69
   10.00    45.00       3.16    3.26    6.22    0.00014    45.34  LEFT      7.06558E-01  -113.90    7.14876E-01  -113.88
   20.00    45.00       2.61    3.03    5.83    0.00025    46.38  LEFT      6.63088E-01  -111.56    6.95777E-01  -111.53
   30.00    45.00       1.64    2.63    5.17    0.00058    48.24  RIGHT     5.93429E-01  -107.80    6.64711E-01  -107.87
   40.00    45.00       0.19    2.07    4.24    0.00355    51.13  RIGHT     5.02164E-01  -102.81    6.23034E-01  -103.23
   50.00    45.00      -1.87    1.34    3.03    0.00963    55.34  RIGHT     3.96037E-01   -96.84    5.72848E-01   -98.02
   60.00    45.00      -4.77    0.44    1.59    0.01835    61.26  RIGHT     2.83555E-01   -90.15    5.16812E-01   -92.64
   70.00    45.00      -9.01   -0.61   -0.03    0.02570    69.21  RIGHT     1.74116E-01   -83.05    4.57617E-01   -87.49
   80.00    45.00     -16.10   -1.84   -1.68    0.02270    79.12  RIGHT     7.69265E-02   -75.89    3.97298E-01   -82.87
   90.00    45.00    -999.99   -3.28   -3.28    0.00000   -90.00  LINEAR    1.88878E-12   110.92    3.36730E-01   -79.12
  100.00    45.00     -19.72   -5.01   -4.87    0.04153   -79.85  LEFT      5.06954E-02   116.72    2.75748E-01   -76.76
  110.00    45.00     -16.66   -7.21   -6.74    0.09003   -72.02  LEFT      7.21135E-02   120.20    2.14223E-01   -76.98
  120.00    45.00     -17.49  -10.04   -9.32    0.12734   -67.93  LEFT      6.56005E-02   117.50    1.54537E-01   -82.89
  130.00    45.00     -21.11  -13.20  -12.55    0.08196   -68.50  LEFT      4.32195E-02    91.39    1.07451E-01  -102.21
  140.00    45.00     -19.03  -13.92  -12.75    0.09287   -61.27  RIGHT     5.49202E-02    29.76    9.88917E-02  -137.71
  150.00    45.00     -13.23  -11.46   -9.24    0.07344   -50.86  RIGHT     1.07137E-01     8.89    1.31347E-01  -162.53
  160.00    45.00      -9.70   -9.10   -6.38    0.02850   -46.97  RIGHT     1.60847E-01     4.41    1.72310E-01  -172.32
  170.00    45.00      -7.84   -7.71   -4.76    0.00640   -45.44  RIGHT     1.99231E-01     3.51    2.02285E-01  -175.76
  180.00    45.00      -7.25   -7.25   -4.24    0.00000   -45.00  LINEAR    2.13079E-01     3.40    2.13079E-01  -176.60
    0.00    90.00       6.35 -999.99    6.35    0.00000     0.00  LINEAR    1.02009E+00  -114.69    5.20378E-12    65.23
   10.00    90.00       6.15 -999.99    6.15    0.00000     0.00  LINEAR    9.97020E-01  -113.88    5.14590E-12    66.05
   20.00    90.00       5.54 -999.99    5.54    0.00000     0.00  LINEAR    9.29737E-01  -111.49    4.97672E-12    68.46
   30.00    90.00       4.49 -999.99    4.49    0.00000     0.00  LINEAR    8.23958E-01  -107.59    4.70791E-12    72.27
   40.00    90.00       2.94 -999.99    2.94    0.00000     0.00  LINEAR    6.88903E-01  -102.34    4.35896E-12    77.20
   50.00    90.00       0.77 -999.99    0.77    0.00000     0.00  LINEAR    5.36429E-01   -95.91    3.95449E-12    82.90
   60.00    90.00      -2.24 -999.99   -2.24    0.00000     0.00  LINEAR    3.79568E-01   -88.58    3.52086E-12    89.00
   70.00    90.00      -6.56 -999.99   -6.56    0.00000     0.00  LINEAR    2.30916E-01   -80.62    3.08028E-12    95.12
   80.00    90.00     -13.70 -999.99  -13.70    0.00000     0.00  LINEAR    1.01444E-01   -72.38    2.64642E-12   100.88
   90.00    90.00    -999.99 -999.99 -999.99    0.00000     0.00            2.48630E-12   115.71    2.22225E-12   105.90
  100.00    90.00     -17.33 -999.99  -17.33    0.00000     0.00  LINEAR    6.67907E-02   123.07    1.80184E-12   109.58
  110.00    90.00     -14.28 -999.99  -14.28    0.00000     0.00  LINEAR    9.48927E-02   128.65    1.37821E-12   110.66
  120.00    90.00     -15.31 -999.99  -15.31    0.00000     0.00  LINEAR    8.42803E-02   129.40    9.59593E-13   105.68
  130.00    90.00     -20.62 -999.99  -20.62    0.00000     0.00  LINEAR    4.57552E-02   106.64    6.19260E-13    84.10
  140.00    90.00     -18.02 -999.99  -18.02    0.00000     0.00  LINEAR    6.17112E-02    22.77    5.90823E-13    40.16
  150.00    90.00     -10.74 -999.99  -10.74    0.00000     0.00  LINEAR    1.42629E-01     5.31    8.81728E-13    14.79
  160.00    90.00      -6.86 -999.99   -6.86    0.00000     0.00  LINEAR    2.23045E-01     3.14    1.21106E-12     6.58
  170.00    90.00      -4.86 -999.99   -4.86    0.00000     0.00  LINEAR    2.80535E-01     3.23    1.44602E-12     4.02
  180.00    90.00      -4.24 -999.99   -4.24    0.00000     0.00  LINEAR    3.01339E-01     3.40    1.53025E-12     3.44


                                     - - - - NORMALIZED GAIN - - - -

                                           TOTAL GAIN
                                      NORMALIZATION FACTOR =     6.35 DB

    - - ANGLES - -      GAIN           - - ANGLES - -      GAIN           - - ANGLES - -      GAIN
    THETA     PHI        DB            THETA     PHI        DB            THETA     PHI        DB
   DEGREES  DEGREES                   DEGREES  DEGREES                   DEGREES  DEGREES
      0.00     0.00      0.00            0.00    45.00      0.00            0.00    90.00      0.00
     10.00     0.00     -0.06           10.00    45.00     -0.13           10.00    90.00     -0.20
     20.00     0.00     -0.24           20.00    45.00     -0.52           20.00    90.00     -0.81
     30.00     0.00     -0.55           30.00    45.00     -1.17           30.00    90.00     -1.85
     40.00     0.00     -1.00           40.00    45.00     -2.11           40.00    90.00     -3.41
     50.00     0.00     -1.61           50.00    45.00     -3.32           50.00    90.00     -5.58
     60.00     0.00     -2.38           60.00    45.00     -4.76           60.00    90.00     -8.59
     70.00     0.00     -3.32           70.00    45.00     -6.38           70.00    90.00    -12.90
     80.00     0.00     -4.44           80.00    45.00     -8.03           80.00    90.00    -20.05
     90.00     0.00     -5.77           90.00    45.00     -9.63           90.00    90.00  -1006.34
    100.00     0.00     -7.40          100.00    45.00    -11.22          100.00    90.00    -23.68
    110.00     0.00     -9.44          110.00    45.00    -13.09          110.00    90.00    -20.63
    120.00     0.00    -12.01          120.00    45.00    -15.67          120.00    90.00    -21.66
    130.00     0.00    -14.78          130.00    45.00    -18.90          130.00    90.00    -26.96
    140.00     0.00    -15.84          140.00    45.00    -19.10          140.00    90.00    -24.37
    150.00     0.00    -14.22          150.00    45.00    -15.59          150.00    90.00    -17.09
    160.00     0.00    -12.25          160.00    45.00    -12.72          160.00    90.00    -13.20
    170.00     0.00    -11.00          170.00    45.00    -11.11          170.00    90.00    -11.21
    180.00     0.00    -10.59          180.00    45.00    -10.59          180.00    90.00    -10.59






 ***** DATA CARD NO.  4   EN   0    19     3  1500  0.00000E+00  0.00000E+00  1.00000E+01  4.50000E+01  0.00000E+00  0.00000E+00

 RUN TIME =     0.266
